data_crystal

_cell_length_a    8.57798
_cell_length_b    8.57798
_cell_length_c    8.57798
_cell_angle_alpha 109.47122
_cell_angle_beta  109.47122
_cell_angle_gamma 109.47122

_space_group_name_Hall 'P 1'
_space_group_name_H-M_alt 'P 1'

loop_
_symmetry_equiv_pos_as_xyz
 'x,y,z'

loop_
_atom_site_label
_atom_site_type_symbol
_atom_site_fract_x
_atom_site_fract_y
_atom_site_fract_z
O          O       0.50000   0.00000   0.00000
O          O       0.50000   0.50000   0.50000
O          O       1.00000   0.50000   0.00000
O          O       1.00000   1.00000   0.50000
O          O       0.37540   0.18770   0.18770
O          O       0.18770   0.81230   1.00000
O          O       0.18770   1.00000   0.81230
O          O       0.18770   0.18770   0.37540
O          O       0.18770   0.37540   0.18770
O          O       0.00000   0.81230   0.18770
O          O       0.81230   0.62460   0.81230
O          O       0.81230   0.00000   0.18770
O          O       1.00000   0.18770   0.81230
O          O       0.81230   0.81230   0.62460
O          O       0.81230   0.18770   0.00000
O          O       0.62460   0.81230   0.81230
Si         Si      0.31280   1.00000   1.00000
Si         Si      0.31280   0.31280   0.31280
Si         Si      1.00000   0.68720   0.00000
Si         Si      1.00000   1.00000   0.31280
Si         Si      1.00000   1.00000   0.68720
Si         Si      1.00000   0.31280   0.00000
Si         Si      0.68720   0.00000   0.00000
Si         Si      0.68720   0.68720   0.68720
