data_crystal

_cell_length_a    9.30049
_cell_length_b    9.30049
_cell_length_c    18.49700
_cell_angle_alpha 90.00000
_cell_angle_beta  90.00000
_cell_angle_gamma 94.66235

_space_group_name_Hall 'P 1'
_space_group_name_H-M_alt 'P 1'

loop_
_symmetry_equiv_pos_as_xyz
 'x,y,z'

loop_
_atom_site_label
_atom_site_type_symbol
_atom_site_fract_x
_atom_site_fract_y
_atom_site_fract_z
O          O       0.00040   0.00040   0.16140
O          O       0.99960   0.99960   0.66140
O          O       0.99960   0.99960   0.83860
O          O       0.00040   0.00040   0.33860
O          O       0.18870   0.89890   0.25000
O          O       0.89890   0.18870   0.25000
O          O       0.10110   0.81130   0.75000
O          O       0.81130   0.10110   0.75000
O          O       0.27670   0.02630   0.12930
O          O       0.02630   0.27670   0.12930
O          O       0.97370   0.72330   0.62930
O          O       0.72330   0.97370   0.62930
O          O       0.72330   0.97370   0.87070
O          O       0.97370   0.72330   0.87070
O          O       0.02630   0.27670   0.37070
O          O       0.27670   0.02630   0.37070
O          O       0.13210   0.77130   0.12530
O          O       0.77130   0.13210   0.12530
O          O       0.22870   0.86790   0.62530
O          O       0.86790   0.22870   0.62530
O          O       0.86790   0.22870   0.87470
O          O       0.22870   0.86790   0.87470
O          O       0.77130   0.13210   0.37470
O          O       0.13210   0.77130   0.37470
O          O       0.97870   0.68570   0.01160
O          O       0.68570   0.97870   0.01160
O          O       0.31430   0.02130   0.51160
O          O       0.02130   0.31430   0.51160
O          O       0.02130   0.31430   0.98840
O          O       0.31430   0.02130   0.98840
O          O       0.68570   0.97870   0.48840
O          O       0.97870   0.68570   0.48840
O          O       0.73640   0.73640   0.94680
O          O       0.26360   0.26360   0.44680
O          O       0.26360   0.26360   0.05320
O          O       0.73640   0.73640   0.55320
O          O       0.84660   0.48780   0.92810
O          O       0.48780   0.84660   0.92810
O          O       0.51220   0.15340   0.42810
O          O       0.15340   0.51220   0.42810
O          O       0.15340   0.51220   0.07190
O          O       0.51220   0.15340   0.07190
O          O       0.48780   0.84660   0.57190
O          O       0.84660   0.48780   0.57190
O          O       0.74040   0.25960   0.00000
O          O       0.25960   0.74040   1.00000
O          O       0.74040   0.25960   0.50000
O          O       0.25960   0.74040   0.50000
Si         Si      0.14950   0.92430   0.16640
Si         Si      0.92430   0.14950   0.16640
Si         Si      0.07570   0.85050   0.66640
Si         Si      0.85050   0.07570   0.66640
Si         Si      0.85050   0.07570   0.83360
Si         Si      0.07570   0.85050   0.83360
Si         Si      0.92430   0.14950   0.33360
Si         Si      0.14950   0.92430   0.33360
Si         Si      0.88390   0.65830   0.93940
Si         Si      0.65830   0.88390   0.93940
Si         Si      0.34170   0.11610   0.43940
Si         Si      0.11610   0.34170   0.43940
Si         Si      0.11610   0.34170   0.06060
Si         Si      0.34170   0.11610   0.06060
Si         Si      0.65830   0.88390   0.56060
Si         Si      0.88390   0.65830   0.56060
Si         Si      0.67750   0.13090   0.05210
Si         Si      0.13090   0.67750   0.05210
Si         Si      0.86910   0.32250   0.55210
Si         Si      0.32250   0.86910   0.55210
Si         Si      0.32250   0.86910   0.94790
Si         Si      0.86910   0.32250   0.94790
Si         Si      0.13090   0.67750   0.44790
Si         Si      0.67750   0.13090   0.44790
