data_crystal

_cell_length_a    8.31200
_cell_length_b    12.23939
_cell_length_c    12.23939
_cell_angle_alpha 66.33468
_cell_angle_beta  70.14996
_cell_angle_gamma 70.14996

_space_group_name_Hall 'P 1'
_space_group_name_H-M_alt 'P 1'

loop_
_symmetry_equiv_pos_as_xyz
 'x,y,z'

loop_
_atom_site_label
_atom_site_type_symbol
_atom_site_fract_x
_atom_site_fract_y
_atom_site_fract_z
O          O       0.15910   0.92080   0.16980
O          O       0.75030   0.92080   0.16980
O          O       0.74970   0.33020   0.57920
O          O       0.34090   0.33020   0.57920
O          O       0.84090   0.07920   0.83020
O          O       0.24970   0.07920   0.83020
O          O       0.25030   0.66980   0.42080
O          O       0.65910   0.66980   0.42080
O          O       0.31090   0.68910   0.18910
O          O       0.81090   0.68910   0.18910
O          O       0.68910   0.31090   0.81090
O          O       0.18910   0.31090   0.81090
O          O       0.37180   0.86160   0.97680
O          O       0.78980   0.86160   0.97680
O          O       0.71020   0.52320   0.63840
O          O       0.12820   0.52320   0.63840
O          O       0.62820   0.13840   0.02320
O          O       0.21020   0.13840   0.02320
O          O       0.28980   0.47680   0.36160
O          O       0.87180   0.47680   0.36160
O          O       0.06190   0.80840   0.06780
O          O       0.43810   0.43220   0.69160
O          O       0.93810   0.19160   0.93220
O          O       0.56190   0.56780   0.30840
O          O       0.91840   0.90030   0.73990
O          O       0.44140   0.90030   0.73990
O          O       0.05860   0.76010   0.59970
O          O       0.58160   0.76010   0.59970
O          O       0.08160   0.09970   0.26010
O          O       0.55860   0.09970   0.26010
O          O       0.94140   0.23990   0.40030
O          O       0.41840   0.23990   0.40030
O          O       0.58800   0.00150   0.82250
O          O       0.91200   0.67750   0.49850
O          O       0.41200   0.99850   0.17750
O          O       0.08800   0.32250   0.50150
O          O       0.50000   0.00000   0.50000
O          O       0.00000   0.00000   0.50000
O          O       0.25000   0.87970   0.62030
O          O       0.75000   0.12030   0.37970
Si         Si      0.22570   0.81990   0.10110
Si         Si      0.85330   0.81990   0.10110
Si         Si      0.64670   0.39890   0.68010
Si         Si      0.27430   0.39890   0.68010
Si         Si      0.77430   0.18010   0.89890
Si         Si      0.14670   0.18010   0.89890
Si         Si      0.35330   0.60110   0.31990
Si         Si      0.72570   0.60110   0.31990
Si         Si      0.78450   0.96060   0.84220
Si         Si      0.41270   0.96060   0.84220
Si         Si      0.08730   0.65780   0.53940
Si         Si      0.71550   0.65780   0.53940
Si         Si      0.21550   0.03940   0.15780
Si         Si      0.58730   0.03940   0.15780
Si         Si      0.91270   0.34220   0.46060
Si         Si      0.28450   0.34220   0.46060
Si         Si      0.44320   0.88530   0.61470
Si         Si      0.05680   0.88530   0.61470
Si         Si      0.55680   0.11470   0.38530
Si         Si      0.94320   0.11470   0.38530
