data_crystal

_cell_length_a    9.63600
_cell_length_b    11.42097
_cell_length_c    11.42097
_cell_angle_alpha 108.44060
_cell_angle_beta  90.00000
_cell_angle_gamma 90.00000

_space_group_name_Hall 'P 1'
_space_group_name_H-M_alt 'P 1'

loop_
_symmetry_equiv_pos_as_xyz
 'x,y,z'

loop_
_atom_site_label
_atom_site_type_symbol
_atom_site_fract_x
_atom_site_fract_y
_atom_site_fract_z
O          O       0.22740   0.63320   0.41280
O          O       0.22740   0.41280   0.63320
O          O       0.72740   0.08720   0.86680
O          O       0.72740   0.86680   0.08720
O          O       0.77260   0.36680   0.58720
O          O       0.77260   0.58720   0.36680
O          O       0.27260   0.91280   0.13320
O          O       0.27260   0.13320   0.91280
O          O       0.50000   0.60000   0.40000
O          O       0.50000   0.40000   0.60000
O          O       0.00000   0.10000   0.90000
O          O       1.00000   0.90000   0.10000
O          O       0.36300   0.59900   0.59900
O          O       0.86300   0.90100   0.90100
O          O       0.63700   0.40100   0.40100
O          O       0.13700   0.09900   0.09900
O          O       0.39510   0.80500   0.54660
O          O       0.39510   0.54660   0.80500
O          O       0.89510   0.95340   0.69500
O          O       0.89510   0.69500   0.95340
O          O       0.60490   0.19500   0.45340
O          O       0.60490   0.45340   0.19500
O          O       0.10490   0.04660   0.30500
O          O       0.10490   0.30500   0.04660
O          O       0.81760   0.82320   0.47020
O          O       0.81760   0.47020   0.82320
O          O       0.31760   0.02980   0.67680
O          O       0.31760   0.67680   0.02980
O          O       0.18240   0.17680   0.52980
O          O       0.18240   0.52980   0.17680
O          O       0.68240   0.97020   0.32320
O          O       0.68240   0.32320   0.97020
O          O       0.75000   0.73730   0.23730
O          O       0.75000   0.23730   0.73730
O          O       0.25000   0.26270   0.76270
O          O       0.25000   0.76270   0.26270
O          O       1.00000   0.68940   0.31060
O          O       0.00000   0.31060   0.68940
O          O       0.50000   0.18940   0.81060
O          O       0.50000   0.81060   0.18940
O          O       0.00000   1.00000   0.50000
O          O       0.00000   0.50000   0.00000
O          O       0.50000   1.00000   0.50000
O          O       0.50000   0.50000   0.00000
O          O       0.25000   0.93970   0.43970
O          O       0.25000   0.43970   0.93970
O          O       0.75000   0.06030   0.56030
O          O       0.75000   0.56030   0.06030
Si         Si      0.37120   0.65830   0.48890
Si         Si      0.37120   0.48890   0.65830
Si         Si      0.87120   0.01110   0.84170
Si         Si      0.87120   0.84170   0.01110
Si         Si      0.62880   0.34170   0.51110
Si         Si      0.62880   0.51110   0.34170
Si         Si      0.12880   0.98890   0.15830
Si         Si      0.12880   0.15830   0.98890
Si         Si      0.83800   0.70880   0.34540
Si         Si      0.83800   0.34540   0.70880
Si         Si      0.33800   0.15460   0.79120
Si         Si      0.33800   0.79120   0.15460
Si         Si      0.16200   0.29120   0.65460
Si         Si      0.16200   0.65460   0.29120
Si         Si      0.66200   0.84540   0.20880
Si         Si      0.66200   0.20880   0.84540
Si         Si      0.13490   0.04280   0.44200
Si         Si      0.13490   0.44200   0.04280
Si         Si      0.63490   0.05800   0.45720
Si         Si      0.63490   0.45720   0.05800
Si         Si      0.86510   0.95720   0.55800
Si         Si      0.86510   0.55800   0.95720
Si         Si      0.36510   0.94200   0.54280
Si         Si      0.36510   0.54280   0.94200
