data_crystal

_cell_length_a    8.37400
_cell_length_b    14.38000
_cell_length_c    17.92015
_cell_angle_alpha 113.65473
_cell_angle_beta  90.00000
_cell_angle_gamma 90.00000

_space_group_name_Hall 'P 1'
_space_group_name_H-M_alt 'P 1'

loop_
_symmetry_equiv_pos_as_xyz
 'x,y,z'

loop_
_atom_site_label
_atom_site_type_symbol
_atom_site_fract_x
_atom_site_fract_y
_atom_site_fract_z
O          O       0.25000   0.80250   0.82400
O          O       0.25000   0.97850   0.17600
O          O       0.75000   0.02150   0.82400
O          O       0.75000   0.19750   0.17600
O          O       0.48890   0.80340   0.91960
O          O       0.48890   0.88380   0.08040
O          O       0.98890   0.11620   0.91960
O          O       0.98890   0.19660   0.08040
O          O       0.51110   0.19660   0.08040
O          O       0.51110   0.11620   0.91960
O          O       0.01110   0.88380   0.08040
O          O       0.01110   0.80340   0.91960
O          O       0.50000   0.91840   0.83680
O          O       0.50000   0.08160   0.16320
O          O       1.00000   0.91840   0.83680
O          O       0.00000   0.08160   0.16320
O          O       0.52400   0.72000   0.76060
O          O       0.52400   0.95940   0.23940
O          O       0.02400   0.04060   0.76060
O          O       0.02400   0.28000   0.23940
O          O       0.47600   0.28000   0.23940
O          O       0.47600   0.04060   0.76060
O          O       0.97600   0.95940   0.23940
O          O       0.97600   0.72000   0.76060
O          O       0.25000   0.67520   0.57180
O          O       0.25000   0.10340   0.42820
O          O       0.75000   0.89660   0.57180
O          O       0.75000   0.32480   0.42820
O          O       0.46240   0.60620   0.45400
O          O       0.46240   0.15220   0.54600
O          O       0.96240   0.84780   0.45400
O          O       0.96240   0.39380   0.54600
O          O       0.53760   0.39380   0.54600
O          O       0.53760   0.84780   0.45400
O          O       0.03760   0.15220   0.54600
O          O       0.03760   0.60620   0.45400
O          O       0.50000   0.78640   0.57280
O          O       0.50000   0.21360   0.42720
O          O       0.00000   0.78640   0.57280
O          O       1.00000   0.21360   0.42720
O          O       0.53590   0.62230   0.60120
O          O       0.53590   0.02110   0.39880
O          O       0.03590   0.97890   0.60120
O          O       0.03590   0.37770   0.39880
O          O       0.46410   0.37770   0.39880
O          O       0.46410   0.97890   0.60120
O          O       0.96410   0.02110   0.39880
O          O       0.96410   0.62230   0.60120
O          O       0.25000   0.38580   0.60180
O          O       0.25000   0.78400   0.39820
O          O       0.75000   0.21600   0.60180
O          O       0.75000   0.61420   0.39820
O          O       0.50000   0.33200   0.66400
O          O       0.50000   0.66800   0.33600
O          O       1.00000   0.33200   0.66400
O          O       0.00000   0.66800   0.33600
O          O       0.45460   0.52460   0.69160
O          O       0.45460   0.83300   0.30840
O          O       0.95460   0.16700   0.69160
O          O       0.95460   0.47540   0.30840
O          O       0.54540   0.47540   0.30840
O          O       0.54540   0.16700   0.69160
O          O       0.04540   0.83300   0.30840
O          O       0.04540   0.52460   0.69160
O          O       0.75000   0.58570   0.69320
O          O       0.75000   0.89250   0.30680
O          O       0.25000   0.10750   0.69320
O          O       0.25000   0.41430   0.30680
O          O       0.25000   0.11120   1.00000
O          O       0.75000   0.88880   0.00000
O          O       0.50000   0.00000   0.00000
O          O       0.00000   0.00000   0.00000
Si         Si      0.44070   0.81120   0.83520
Si         Si      0.44070   0.97600   0.16480
Si         Si      0.94070   0.02400   0.83520
Si         Si      0.94070   0.18880   0.16480
Si         Si      0.55930   0.18880   0.16480
Si         Si      0.55930   0.02400   0.83520
Si         Si      0.05930   0.97600   0.16480
Si         Si      0.05930   0.81120   0.83520
Si         Si      0.43670   0.67260   0.54980
Si         Si      0.43670   0.12280   0.45020
Si         Si      0.93670   0.87720   0.54980
Si         Si      0.93670   0.32740   0.45020
Si         Si      0.56330   0.32740   0.45020
Si         Si      0.56330   0.87720   0.54980
Si         Si      0.06330   0.12280   0.45020
Si         Si      0.06330   0.67260   0.54980
Si         Si      0.43510   0.40930   0.62620
Si         Si      0.43510   0.78310   0.37380
Si         Si      0.93510   0.21690   0.62620
Si         Si      0.93510   0.59070   0.37380
Si         Si      0.56490   0.59070   0.37380
Si         Si      0.56490   0.21690   0.62620
Si         Si      0.06490   0.78310   0.37380
Si         Si      0.06490   0.40930   0.62620
Si         Si      0.93430   0.61350   0.68680
Si         Si      0.93430   0.92670   0.31320
Si         Si      0.43430   0.07330   0.68680
Si         Si      0.43430   0.38650   0.31320
Si         Si      0.06570   0.38650   0.31320
Si         Si      0.06570   0.07330   0.68680
Si         Si      0.56570   0.92670   0.31320
Si         Si      0.56570   0.61350   0.68680
Si         Si      0.44170   0.10650   0.00000
Si         Si      0.94170   0.89350   0.00000
Si         Si      0.55830   0.89350   0.00000
Si         Si      0.05830   0.10650   0.00000
