data_crystal

_cell_length_a    12.54800
_cell_length_b    12.54800
_cell_length_c    20.78900
_cell_angle_alpha 90.00000
_cell_angle_beta  90.00000
_cell_angle_gamma 120.00000

_space_group_name_Hall 'P 1'
_space_group_name_H-M_alt 'P 1'

loop_
_symmetry_equiv_pos_as_xyz
 'x,y,z'

loop_
_atom_site_label
_atom_site_type_symbol
_atom_site_fract_x
_atom_site_fract_y
_atom_site_fract_z
Si         Si      0.41830   0.08890   0.87460
Si         Si      0.67060   0.58170   0.87460
Si         Si      0.91110   0.32940   0.87460
Si         Si      0.58170   0.91110   0.37460
Si         Si      0.32940   0.41830   0.37460
Si         Si      0.08890   0.67060   0.37460
Si         Si      0.67060   0.08890   0.87460
Si         Si      0.91110   0.58170   0.87460
Si         Si      0.41830   0.32940   0.87460
Si         Si      0.32940   0.91110   0.37460
Si         Si      0.08890   0.41830   0.37460
Si         Si      0.58170   0.67060   0.37460
Si         Si      0.58170   0.91110   0.12540
Si         Si      0.32940   0.41830   0.12540
Si         Si      0.08890   0.67060   0.12540
Si         Si      0.41830   0.08890   0.62540
Si         Si      0.67060   0.58170   0.62540
Si         Si      0.91110   0.32940   0.62540
Si         Si      0.32940   0.91110   0.12540
Si         Si      0.08890   0.41830   0.12540
Si         Si      0.58170   0.67060   0.12540
Si         Si      0.67060   0.08890   0.62540
Si         Si      0.91110   0.58170   0.62540
Si         Si      0.41830   0.32940   0.62540
Si         Si      0.75340   0.74990   0.75000
Si         Si      0.99650   0.24660   0.75000
Si         Si      0.25010   0.00350   0.75000
Si         Si      0.24660   0.25010   0.25000
Si         Si      0.00350   0.75340   0.25000
Si         Si      0.74990   0.99650   0.25000
Si         Si      0.99650   0.74990   0.75000
Si         Si      0.25010   0.24660   0.75000
Si         Si      0.75340   0.00350   0.75000
Si         Si      0.00350   0.25010   0.25000
Si         Si      0.74990   0.75340   0.25000
Si         Si      0.24660   0.99650   0.25000
Si         Si      0.75220   0.75220   1.00000
Si         Si      1.00000   0.24780   0.00000
Si         Si      0.24780   0.00000   0.00000
Si         Si      0.24780   0.24780   0.50000
Si         Si      1.00000   0.75220   0.50000
Si         Si      0.75220   0.00000   0.50000
Si         Si      1.00000   0.75220   0.00000
Si         Si      0.24780   0.24780   1.00000
Si         Si      0.75220   0.00000   0.00000
Si         Si      1.00000   0.24780   0.50000
Si         Si      0.75220   0.75220   0.50000
Si         Si      0.24780   0.00000   0.50000
O          O       0.33920   0.03450   0.93940
O          O       0.69530   0.66080   0.93940
O          O       0.96550   0.30470   0.93940
O          O       0.66080   0.96550   0.43940
O          O       0.30470   0.33920   0.43940
O          O       0.03450   0.69530   0.43940
O          O       0.69530   0.03450   0.93940
O          O       0.96550   0.66080   0.93940
O          O       0.33920   0.30470   0.93940
O          O       0.30470   0.96550   0.43940
O          O       0.03450   0.33920   0.43940
O          O       0.66080   0.69530   0.43940
O          O       0.66080   0.96550   0.06060
O          O       0.30470   0.33920   0.06060
O          O       0.03450   0.69530   0.06060
O          O       0.33920   0.03450   0.56060
O          O       0.69530   0.66080   0.56060
O          O       0.96550   0.30470   0.56060
O          O       0.30470   0.96550   0.06060
O          O       0.03450   0.33920   0.06060
O          O       0.66080   0.69530   0.06060
O          O       0.69530   0.03450   0.56060
O          O       0.96550   0.66080   0.56060
O          O       0.33920   0.30470   0.56060
O          O       0.33200   0.02320   0.81320
O          O       0.69120   0.66800   0.81320
O          O       0.97680   0.30880   0.81320
O          O       0.66800   0.97680   0.31320
O          O       0.30880   0.33200   0.31320
O          O       0.02320   0.69120   0.31320
O          O       0.69120   0.02320   0.81320
O          O       0.97680   0.66800   0.81320
O          O       0.33200   0.30880   0.81320
O          O       0.30880   0.97680   0.31320
O          O       0.02320   0.33200   0.31320
O          O       0.66800   0.69120   0.31320
O          O       0.66800   0.97680   0.18680
O          O       0.30880   0.33200   0.18680
O          O       0.02320   0.69120   0.18680
O          O       0.33200   0.02320   0.68680
O          O       0.69120   0.66800   0.68680
O          O       0.97680   0.30880   0.68680
O          O       0.30880   0.97680   0.18680
O          O       0.02320   0.33200   0.18680
O          O       0.66800   0.69120   0.18680
O          O       0.69120   0.02320   0.68680
O          O       0.97680   0.66800   0.68680
O          O       0.33200   0.30880   0.68680
O          O       0.46970   0.23490   0.87120
O          O       0.76520   0.53030   0.87120
O          O       0.76510   0.23480   0.87120
O          O       0.53030   0.76510   0.37120
O          O       0.23480   0.46970   0.37120
O          O       0.23490   0.76520   0.37120
O          O       0.53030   0.76510   0.12880
O          O       0.23480   0.46970   0.12880
O          O       0.23490   0.76520   0.12880
O          O       0.46970   0.23490   0.62880
O          O       0.76520   0.53030   0.62880
O          O       0.76510   0.23480   0.62880
O          O       0.53150   0.06290   0.87470
O          O       0.53140   0.46850   0.87470
O          O       0.93710   0.46860   0.87470
O          O       0.46850   0.93710   0.37470
O          O       0.46860   0.53150   0.37470
O          O       0.06290   0.53140   0.37470
O          O       0.46850   0.93710   0.12530
O          O       0.46860   0.53150   0.12530
O          O       0.06290   0.53140   0.12530
O          O       0.53150   0.06290   0.62530
O          O       0.53140   0.46850   0.62530
O          O       0.93710   0.46860   0.62530
O          O       0.89870   0.79740   0.75000
O          O       0.89870   0.10130   0.75000
O          O       0.20260   0.10130   0.75000
O          O       0.10130   0.20260   0.25000
O          O       0.10130   0.89870   0.25000
O          O       0.79740   0.89870   0.25000
O          O       0.73160   0.86580   0.75000
O          O       0.13420   0.26840   0.75000
O          O       0.13420   0.86580   0.75000
O          O       0.26840   0.13420   0.25000
O          O       0.86580   0.73160   0.25000
O          O       0.86580   0.13420   0.25000
O          O       0.88410   0.76830   0.01810
O          O       0.88420   0.11590   0.01810
O          O       0.23170   0.11580   0.01810
O          O       0.11590   0.23170   0.51810
O          O       0.11580   0.88410   0.51810
O          O       0.76830   0.88420   0.51810
O          O       0.11590   0.23170   0.98190
O          O       0.11580   0.88410   0.98190
O          O       0.76830   0.88420   0.98190
O          O       0.88410   0.76830   0.48190
O          O       0.88420   0.11590   0.48190
O          O       0.23170   0.11580   0.48190
