data_crystal

_cell_length_a    8.58035
_cell_length_b    13.82710
_cell_length_c    13.82710
_cell_angle_alpha 120.00000
_cell_angle_beta  90.00000
_cell_angle_gamma 90.00000

_space_group_name_Hall 'P 1'
_space_group_name_H-M_alt 'P 1'

loop_
_symmetry_equiv_pos_as_xyz
 'x,y,z'

loop_
_atom_site_label
_atom_site_type_symbol
_atom_site_fract_x
_atom_site_fract_y
_atom_site_fract_z
Si         Si      0.81265   0.54350   0.87687
Si         Si      0.81265   0.33337   0.45650
Si         Si      0.81265   0.12313   0.66663
Si         Si      0.81265   0.45650   0.12313
Si         Si      0.81265   0.66663   0.54350
Si         Si      0.81265   0.87687   0.33337
Si         Si      0.68735   0.66663   0.12313
Si         Si      0.68735   0.87687   0.54350
Si         Si      0.68735   0.45650   0.33337
Si         Si      0.68735   0.33337   0.87687
Si         Si      0.68735   0.12313   0.45650
Si         Si      0.68735   0.54350   0.66663
Si         Si      0.18735   0.45650   0.12313
Si         Si      0.18735   0.66663   0.54350
Si         Si      0.18735   0.87687   0.33337
Si         Si      0.18735   0.54350   0.87687
Si         Si      0.18735   0.33337   0.45650
Si         Si      0.18735   0.12313   0.66663
Si         Si      0.31265   0.33337   0.87687
Si         Si      0.31265   0.12313   0.45650
Si         Si      0.31265   0.54350   0.66663
Si         Si      0.31265   0.66663   0.12313
Si         Si      0.31265   0.87687   0.54350
Si         Si      0.31265   0.45650   0.33337
O          O       0.00000   0.54348   0.87681
O          O       0.00000   0.33333   0.45652
O          O       0.00000   0.12319   0.66667
O          O       0.00000   0.45652   0.12319
O          O       1.00000   0.66667   0.54348
O          O       0.00000   0.87681   0.33333
O          O       0.50000   0.66667   0.12319
O          O       0.50000   0.87681   0.54348
O          O       0.50000   0.45652   0.33333
O          O       0.50000   0.33333   0.87681
O          O       0.50000   0.12319   0.45652
O          O       0.50000   0.54348   0.66667
O          O       0.75000   0.63072   1.00000
O          O       0.75000   0.36928   0.36928
O          O       0.75000   0.00000   0.63072
O          O       0.75000   0.36928   0.00000
O          O       0.75000   0.63072   0.63072
O          O       0.75000   0.00000   0.36928
O          O       0.25000   0.36928   0.00000
O          O       0.25000   0.63072   0.63072
O          O       0.25000   0.00000   0.36928
O          O       0.25000   0.63072   1.00000
O          O       0.25000   0.36928   0.36928
O          O       0.25000   0.00000   0.63072
O          O       0.75000   0.57996   0.78998
O          O       0.75000   0.21002   0.42004
O          O       0.75000   0.21002   0.78998
O          O       0.75000   0.42004   0.21002
O          O       0.75000   0.78998   0.57996
O          O       0.75000   0.78998   0.21002
O          O       0.25000   0.42004   0.21002
O          O       0.25000   0.78998   0.57996
O          O       0.25000   0.78998   0.21002
O          O       0.25000   0.57996   0.78998
O          O       0.25000   0.21002   0.42004
O          O       0.25000   0.21002   0.78998
O          O       0.75000   0.42017   0.84034
O          O       0.75000   0.42017   0.57983
O          O       0.75000   0.15966   0.57983
O          O       0.75000   0.57983   0.15966
O          O       0.75000   0.57983   0.42017
O          O       0.75000   0.84034   0.42017
O          O       0.25000   0.57983   0.15966
O          O       0.25000   0.57983   0.42017
O          O       0.25000   0.84034   0.42017
O          O       0.25000   0.42017   0.84034
O          O       0.25000   0.42017   0.57983
O          O       0.25000   0.15966   0.57983
