data_crystal

_cell_length_a    9.71974
_cell_length_b    9.71974
_cell_length_c    10.20200
_cell_angle_alpha 77.65854
_cell_angle_beta  77.65854
_cell_angle_gamma 87.69064

_space_group_name_Hall 'P 1'
_space_group_name_H-M_alt 'P 1'

loop_
_symmetry_equiv_pos_as_xyz
 'x,y,z'

loop_
_atom_site_label
_atom_site_type_symbol
_atom_site_fract_x
_atom_site_fract_y
_atom_site_fract_z
O          O       0.66020   0.97640   0.67380
O          O       0.02360   0.33980   0.32620
O          O       0.33980   0.02360   0.32620
O          O       0.97640   0.66020   0.67380
O          O       0.44680   0.08200   0.82450
O          O       0.91800   0.55320   0.17550
O          O       0.55320   0.91800   0.17550
O          O       0.08200   0.44680   0.82450
O          O       0.41430   0.83710   0.76750
O          O       0.16290   0.58570   0.23250
O          O       0.58570   0.16290   0.23250
O          O       0.83710   0.41430   0.76750
O          O       0.57940   0.85840   0.93360
O          O       0.14160   0.42060   0.06640
O          O       0.42060   0.14160   0.06640
O          O       0.85840   0.57940   0.93360
O          O       0.29640   0.58600   0.85130
O          O       0.41400   0.70360   0.14870
O          O       0.70360   0.41400   0.14870
O          O       0.58600   0.29640   0.85130
O          O       0.31050   0.31050   0.87750
O          O       0.68950   0.68950   0.12250
O          O       0.85740   0.14260   0.50000
O          O       0.14260   0.85740   0.50000
O          O       0.07250   0.07250   0.32240
O          O       0.92750   0.92750   0.67760
O          O       0.85220   0.19600   0.23770
O          O       0.80400   0.14780   0.76230
O          O       0.14780   0.80400   0.76230
O          O       0.19600   0.85220   0.23770
O          O       0.77590   0.22410   1.00000
O          O       0.22410   0.77590   1.00000
Si         Si      0.75200   0.27060   0.84510
Si         Si      0.72940   0.24800   0.15490
Si         Si      0.24800   0.72940   0.15490
Si         Si      0.27060   0.75200   0.84510
Si         Si      0.52540   0.93820   0.79860
Si         Si      0.06180   0.47460   0.20140
Si         Si      0.47460   0.06180   0.20140
Si         Si      0.93820   0.52540   0.79860
Si         Si      0.20860   0.44060   0.90490
Si         Si      0.55940   0.79140   0.09510
Si         Si      0.79140   0.55940   0.09510
Si         Si      0.44060   0.20860   0.90490
Si         Si      0.95140   0.18780   0.34710
Si         Si      0.81220   0.04860   0.65290
Si         Si      0.04860   0.81220   0.65290
Si         Si      0.18780   0.95140   0.34710
