data_crystal

_cell_length_a    8.32700
_cell_length_b    9.76400
_cell_length_c    13.70595
_cell_angle_alpha 110.86674
_cell_angle_beta  90.00000
_cell_angle_gamma 90.00000

_space_group_name_Hall 'P 1'
_space_group_name_H-M_alt 'P 1'

loop_
_symmetry_equiv_pos_as_xyz
 'x,y,z'

loop_
_atom_site_label
_atom_site_type_symbol
_atom_site_fract_x
_atom_site_fract_y
_atom_site_fract_z
O          O       0.25000   0.52700   0.69280
O          O       0.25000   0.16580   0.69280
O          O       0.75000   0.83420   0.30720
O          O       0.75000   0.47300   0.30720
O          O       0.02330   0.72430   0.71760
O          O       0.02330   0.99330   0.71760
O          O       0.52330   0.00670   0.28240
O          O       0.52330   0.27570   0.28240
O          O       0.97670   0.27570   0.28240
O          O       0.97670   0.00670   0.28240
O          O       0.47670   0.99330   0.71760
O          O       0.47670   0.72430   0.71760
O          O       0.96040   0.44470   0.62000
O          O       0.96040   0.17530   0.62000
O          O       0.46040   0.82470   0.38000
O          O       0.46040   0.55530   0.38000
O          O       0.03960   0.55530   0.38000
O          O       0.03960   0.82470   0.38000
O          O       0.53960   0.17530   0.62000
O          O       0.53960   0.44470   0.62000
O          O       0.01130   0.54590   0.82260
O          O       0.01130   0.27670   0.82260
O          O       0.51130   0.72330   0.17740
O          O       0.51130   0.45410   0.17740
O          O       0.98870   0.45410   0.17740
O          O       0.98870   0.72330   0.17740
O          O       0.48870   0.27670   0.82260
O          O       0.48870   0.54590   0.82260
O          O       0.00000   0.50000   0.00000
O          O       0.50000   0.50000   0.00000
O          O       0.25000   0.56280   0.12560
O          O       0.75000   0.43720   0.87440
O          O       0.25000   0.74640   0.49280
O          O       0.75000   0.25360   0.50720
O          O       0.94530   0.77360   0.54720
O          O       0.44530   0.22640   0.45280
O          O       0.05470   0.22640   0.45280
O          O       0.55470   0.77360   0.54720
O          O       0.25000   0.14570   0.29140
O          O       0.75000   0.85430   0.70860
Si         Si      0.06140   0.56070   0.71340
Si         Si      0.06140   0.15270   0.71340
Si         Si      0.56140   0.84730   0.28660
Si         Si      0.56140   0.43930   0.28660
Si         Si      0.93860   0.43930   0.28660
Si         Si      0.93860   0.84730   0.28660
Si         Si      0.43860   0.15270   0.71340
Si         Si      0.43860   0.56070   0.71340
Si         Si      0.05710   0.55990   0.11980
Si         Si      0.55710   0.44010   0.88020
Si         Si      0.94290   0.44010   0.88020
Si         Si      0.44290   0.55990   0.11980
Si         Si      0.06810   0.72500   0.45000
Si         Si      0.56810   0.27500   0.55000
Si         Si      0.93190   0.27500   0.55000
Si         Si      0.43190   0.72500   0.45000
Si         Si      0.06470   0.16360   0.32720
Si         Si      0.56470   0.83640   0.67280
Si         Si      0.93530   0.83640   0.67280
Si         Si      0.43530   0.16360   0.32720
