data_crystal

_cell_length_a    6.97200
_cell_length_b    13.56700
_cell_length_c    22.30500
_cell_angle_alpha 90.00000
_cell_angle_beta  90.00000
_cell_angle_gamma 90.00000

_space_group_name_Hall 'P 1'
_space_group_name_H-M_alt 'P 1'

loop_
_symmetry_equiv_pos_as_xyz
 'x,y,z'

loop_
_atom_site_label
_atom_site_type_symbol
_atom_site_fract_x
_atom_site_fract_y
_atom_site_fract_z
Si         Si      0.55920   0.86240   0.91130
Si         Si      0.55920   0.86240   0.58870
Si         Si      0.55920   0.63760   0.91130
Si         Si      0.55920   0.63760   0.58870
Si         Si      0.44080   0.13760   0.08870
Si         Si      0.44080   0.13760   0.41130
Si         Si      0.44080   0.36240   0.08870
Si         Si      0.44080   0.36240   0.41130
Si         Si      0.89020   0.86360   0.81910
Si         Si      0.89020   0.86360   0.68090
Si         Si      0.89020   0.63640   0.81910
Si         Si      0.89020   0.63640   0.68090
Si         Si      0.10980   0.13640   0.18090
Si         Si      0.10980   0.13640   0.31910
Si         Si      0.10980   0.36360   0.18090
Si         Si      0.10980   0.36360   0.31910
Si         Si      0.87840   0.86290   0.00720
Si         Si      0.87840   0.86290   0.49280
Si         Si      0.87840   0.63710   0.00720
Si         Si      0.87840   0.63710   0.49280
Si         Si      0.12160   0.13710   0.99280
Si         Si      0.12160   0.13710   0.50720
Si         Si      0.12160   0.36290   0.99280
Si         Si      0.12160   0.36290   0.50720
Si         Si      0.14990   0.95290   0.91560
Si         Si      0.14990   0.95290   0.58440
Si         Si      0.14990   0.54710   0.91560
Si         Si      0.14990   0.54710   0.58440
Si         Si      0.85010   0.04710   0.08440
Si         Si      0.85010   0.04710   0.41560
Si         Si      0.85010   0.45290   0.08440
Si         Si      0.85010   0.45290   0.41560
O          O       0.68540   0.87630   0.85150
O          O       0.68540   0.87630   0.64850
O          O       0.68540   0.62370   0.85150
O          O       0.68540   0.62370   0.64850
O          O       0.31460   0.12370   0.14850
O          O       0.31460   0.12370   0.35150
O          O       0.31460   0.37630   0.14850
O          O       0.31460   0.37630   0.35150
O          O       0.68820   0.88770   0.96920
O          O       0.68820   0.88770   0.53080
O          O       0.68820   0.61230   0.96920
O          O       0.68820   0.61230   0.53080
O          O       0.31180   0.11230   0.03080
O          O       0.31180   0.11230   0.46920
O          O       0.31180   0.38770   0.03080
O          O       0.31180   0.38770   0.46920
O          O       0.37730   0.93540   0.90910
O          O       0.37730   0.93540   0.59090
O          O       0.37730   0.56460   0.90910
O          O       0.37730   0.56460   0.59090
O          O       0.62270   0.06460   0.09090
O          O       0.62270   0.06460   0.40910
O          O       0.62270   0.43540   0.09090
O          O       0.62270   0.43540   0.40910
O          O       0.48610   0.75000   0.91550
O          O       0.48610   0.75000   0.58450
O          O       0.51390   0.25000   0.08450
O          O       0.51390   0.25000   0.41550
O          O       0.04670   0.93160   0.85240
O          O       0.04670   0.93160   0.64760
O          O       0.04670   0.56840   0.85240
O          O       0.04670   0.56840   0.64760
O          O       0.95330   0.06840   0.14760
O          O       0.95330   0.06840   0.35240
O          O       0.95330   0.43160   0.14760
O          O       0.95330   0.43160   0.35240
O          O       0.95610   0.75000   0.82250
O          O       0.95610   0.75000   0.67750
O          O       0.04390   0.25000   0.17750
O          O       0.04390   0.25000   0.32250
O          O       0.87290   0.89670   0.75000
O          O       0.87290   0.60330   0.75000
O          O       0.12710   0.10330   0.25000
O          O       0.12710   0.39670   0.25000
O          O       0.87130   0.75000   0.02920
O          O       0.87130   0.75000   0.47080
O          O       0.12870   0.25000   0.97080
O          O       0.12870   0.25000   0.52920
O          O       0.06470   0.87960   0.96580
O          O       0.06470   0.87960   0.53420
O          O       0.06470   0.62040   0.96580
O          O       0.06470   0.62040   0.53420
O          O       0.93530   0.12040   0.03420
O          O       0.93530   0.12040   0.46580
O          O       0.93530   0.37960   0.03420
O          O       0.93530   0.37960   0.46580
O          O       0.88940   0.93470   0.06460
O          O       0.88940   0.93470   0.43540
O          O       0.88940   0.56530   0.06460
O          O       0.88940   0.56530   0.43540
O          O       0.11060   0.06530   0.93540
O          O       0.11060   0.06530   0.56460
O          O       0.11060   0.43470   0.93540
O          O       0.11060   0.43470   0.56460
