data_crystal

_cell_length_a    13.05800
_cell_length_b    13.05800
_cell_length_c    25.91900
_cell_angle_alpha 90.00000
_cell_angle_beta  90.00000
_cell_angle_gamma 120.00000

_space_group_name_Hall 'P 1'
_space_group_name_H-M_alt 'P 1'

loop_
_symmetry_equiv_pos_as_xyz
 'x,y,z'

loop_
_atom_site_label
_atom_site_type_symbol
_atom_site_fract_x
_atom_site_fract_y
_atom_site_fract_z
Si         Si      0.50820   0.86410   0.86700
Si         Si      0.35590   0.49180   0.86700
Si         Si      0.13590   0.64410   0.86700
Si         Si      0.49180   0.13590   0.36700
Si         Si      0.64410   0.50820   0.36700
Si         Si      0.86410   0.35590   0.36700
Si         Si      0.35590   0.86410   0.36700
Si         Si      0.13590   0.49180   0.36700
Si         Si      0.50820   0.64410   0.36700
Si         Si      0.64410   0.13590   0.86700
Si         Si      0.86410   0.50820   0.86700
Si         Si      0.49180   0.35590   0.86700
Si         Si      0.49180   0.13590   0.13300
Si         Si      0.64410   0.50820   0.13300
Si         Si      0.86410   0.35590   0.13300
Si         Si      0.50820   0.86410   0.63300
Si         Si      0.35590   0.49180   0.63300
Si         Si      0.13590   0.64410   0.63300
Si         Si      0.64410   0.13590   0.63300
Si         Si      0.86410   0.50820   0.63300
Si         Si      0.49180   0.35590   0.63300
Si         Si      0.35590   0.86410   0.13300
Si         Si      0.13590   0.49180   0.13300
Si         Si      0.50820   0.64410   0.13300
Si         Si      0.56300   0.69670   0.80920
Si         Si      0.13370   0.43700   0.80920
Si         Si      0.30330   0.86630   0.80920
Si         Si      0.43700   0.30330   0.30920
Si         Si      0.86630   0.56300   0.30920
Si         Si      0.69670   0.13370   0.30920
Si         Si      0.13370   0.69670   0.30920
Si         Si      0.30330   0.43700   0.30920
Si         Si      0.56300   0.86630   0.30920
Si         Si      0.86630   0.30330   0.80920
Si         Si      0.69670   0.56300   0.80920
Si         Si      0.43700   0.13370   0.80920
Si         Si      0.43700   0.30330   0.19080
Si         Si      0.86630   0.56300   0.19080
Si         Si      0.69670   0.13370   0.19080
Si         Si      0.56300   0.69670   0.69080
Si         Si      0.13370   0.43700   0.69080
Si         Si      0.30330   0.86630   0.69080
Si         Si      0.86630   0.30330   0.69080
Si         Si      0.69670   0.56300   0.69080
Si         Si      0.43700   0.13370   0.69080
Si         Si      0.13370   0.69670   0.19080
Si         Si      0.30330   0.43700   0.19080
Si         Si      0.56300   0.86630   0.19080
Si         Si      0.33333   0.66667   0.93800
Si         Si      0.66667   0.33333   0.43800
Si         Si      0.33333   0.66667   0.43800
Si         Si      0.66667   0.33333   0.93800
Si         Si      0.66667   0.33333   0.06200
Si         Si      0.33333   0.66667   0.56200
Si         Si      0.66667   0.33333   0.56200
Si         Si      0.33333   0.66667   0.06200
O          O       0.41960   0.85830   0.82240
O          O       0.43870   0.58040   0.82240
O          O       0.14170   0.56130   0.82240
O          O       0.58040   0.14170   0.32240
O          O       0.56130   0.41960   0.32240
O          O       0.85830   0.43870   0.32240
O          O       0.43870   0.85830   0.32240
O          O       0.14170   0.58040   0.32240
O          O       0.41960   0.56130   0.32240
O          O       0.56130   0.14170   0.82240
O          O       0.85830   0.41960   0.82240
O          O       0.58040   0.43870   0.82240
O          O       0.58040   0.14170   0.17760
O          O       0.56130   0.41960   0.17760
O          O       0.85830   0.43870   0.17760
O          O       0.41960   0.85830   0.67760
O          O       0.43870   0.58040   0.67760
O          O       0.14170   0.56130   0.67760
O          O       0.56130   0.14170   0.67760
O          O       0.85830   0.41960   0.67760
O          O       0.58040   0.43870   0.67760
O          O       0.43870   0.85830   0.17760
O          O       0.14170   0.58040   0.17760
O          O       0.41960   0.56130   0.17760
O          O       0.58160   0.80330   0.84650
O          O       0.22170   0.41840   0.84650
O          O       0.19670   0.77830   0.84650
O          O       0.41840   0.19670   0.34650
O          O       0.77830   0.58160   0.34650
O          O       0.80330   0.22170   0.34650
O          O       0.22170   0.80330   0.34650
O          O       0.19670   0.41840   0.34650
O          O       0.58160   0.77830   0.34650
O          O       0.77830   0.19670   0.84650
O          O       0.80330   0.58160   0.84650
O          O       0.41840   0.22170   0.84650
O          O       0.41840   0.19670   0.15350
O          O       0.77830   0.58160   0.15350
O          O       0.80330   0.22170   0.15350
O          O       0.58160   0.80330   0.65350
O          O       0.22170   0.41840   0.65350
O          O       0.19670   0.77830   0.65350
O          O       0.77830   0.19670   0.65350
O          O       0.80330   0.58160   0.65350
O          O       0.41840   0.22170   0.65350
O          O       0.22170   0.80330   0.15350
O          O       0.19670   0.41840   0.15350
O          O       0.58160   0.77830   0.15350
O          O       0.43300   0.79430   0.91720
O          O       0.36130   0.56700   0.91720
O          O       0.20570   0.63870   0.91720
O          O       0.56700   0.20570   0.41720
O          O       0.63870   0.43300   0.41720
O          O       0.79430   0.36130   0.41720
O          O       0.36130   0.79430   0.41720
O          O       0.20570   0.56700   0.41720
O          O       0.43300   0.63870   0.41720
O          O       0.63870   0.20570   0.91720
O          O       0.79430   0.43300   0.91720
O          O       0.56700   0.36130   0.91720
O          O       0.56700   0.20570   0.08280
O          O       0.63870   0.43300   0.08280
O          O       0.79430   0.36130   0.08280
O          O       0.43300   0.79430   0.58280
O          O       0.36130   0.56700   0.58280
O          O       0.20570   0.63870   0.58280
O          O       0.63870   0.20570   0.58280
O          O       0.79430   0.43300   0.58280
O          O       0.56700   0.36130   0.58280
O          O       0.36130   0.79430   0.08280
O          O       0.20570   0.56700   0.08280
O          O       0.43300   0.63870   0.08280
O          O       0.59830   0.00000   0.88170
O          O       0.40170   0.40170   0.88170
O          O       0.00000   0.59830   0.88170
O          O       0.40170   1.00000   0.38170
O          O       0.59830   0.59830   0.38170
O          O       0.00000   0.40170   0.38170
O          O       0.40170   1.00000   0.11830
O          O       0.59830   0.59830   0.11830
O          O       0.00000   0.40170   0.11830
O          O       0.59830   0.00000   0.61830
O          O       0.40170   0.40170   0.61830
O          O       0.00000   0.59830   0.61830
O          O       0.66870   0.66870   0.81780
O          O       1.00000   0.33130   0.81780
O          O       0.33130   1.00000   0.81780
O          O       0.33130   0.33130   0.31780
O          O       1.00000   0.66870   0.31780
O          O       0.66870   1.00000   0.31780
O          O       0.33130   0.33130   0.18220
O          O       1.00000   0.66870   0.18220
O          O       0.66870   1.00000   0.18220
O          O       0.66870   0.66870   0.68220
O          O       1.00000   0.33130   0.68220
O          O       0.33130   1.00000   0.68220
O          O       0.56270   0.73400   0.75000
O          O       0.17130   0.43730   0.75000
O          O       0.26600   0.82870   0.75000
O          O       0.43730   0.26600   0.25000
O          O       0.82870   0.56270   0.25000
O          O       0.73400   0.17130   0.25000
O          O       0.17130   0.73400   0.25000
O          O       0.26600   0.43730   0.25000
O          O       0.56270   0.82870   0.25000
O          O       0.82870   0.26600   0.75000
O          O       0.73400   0.56270   0.75000
O          O       0.43730   0.17130   0.75000
O          O       0.33333   0.66667   0.00000
O          O       0.66667   0.33333   0.50000
O          O       0.33333   0.66667   0.50000
O          O       0.66667   0.33333   0.00000
