data_crystal

_cell_length_a    13.69100
_cell_length_b    13.69100
_cell_length_c    29.44900
_cell_angle_alpha 90.00000
_cell_angle_beta  90.00000
_cell_angle_gamma 120.00000

_space_group_name_Hall 'P 1'
_space_group_name_H-M_alt 'P 1'

loop_
_symmetry_equiv_pos_as_xyz
 'x,y,z'

loop_
_atom_site_label
_atom_site_type_symbol
_atom_site_fract_x
_atom_site_fract_y
_atom_site_fract_z
Si         Si      0.77430   0.77410   0.80260
Si         Si      0.99980   0.22570   0.80260
Si         Si      0.22590   0.00020   0.80260
Si         Si      0.22570   0.22590   0.30260
Si         Si      0.00020   0.77430   0.30260
Si         Si      0.77410   0.99980   0.30260
Si         Si      0.99980   0.77410   0.80260
Si         Si      0.22590   0.22570   0.80260
Si         Si      0.77430   0.00020   0.80260
Si         Si      0.00020   0.22590   0.30260
Si         Si      0.77410   0.77430   0.30260
Si         Si      0.22570   0.99980   0.30260
Si         Si      0.22570   0.22590   0.19740
Si         Si      0.00020   0.77430   0.19740
Si         Si      0.77410   0.99980   0.19740
Si         Si      0.77430   0.77410   0.69740
Si         Si      0.99980   0.22570   0.69740
Si         Si      0.22590   0.00020   0.69740
Si         Si      0.00020   0.22590   0.19740
Si         Si      0.77410   0.77430   0.19740
Si         Si      0.22570   0.99980   0.19740
Si         Si      0.99980   0.77410   0.69740
Si         Si      0.22590   0.22570   0.69740
Si         Si      0.77430   0.00020   0.69740
Si         Si      0.66610   0.10700   0.53030
Si         Si      0.44090   0.33390   0.53030
Si         Si      0.89300   0.55910   0.53030
Si         Si      0.33390   0.89300   0.03030
Si         Si      0.55910   0.66610   0.03030
Si         Si      0.10700   0.44090   0.03030
Si         Si      0.44090   0.10700   0.53030
Si         Si      0.89300   0.33390   0.53030
Si         Si      0.66610   0.55910   0.53030
Si         Si      0.55910   0.89300   0.03030
Si         Si      0.10700   0.66610   0.03030
Si         Si      0.33390   0.44090   0.03030
Si         Si      0.33390   0.89300   0.46970
Si         Si      0.55910   0.66610   0.46970
Si         Si      0.10700   0.44090   0.46970
Si         Si      0.66610   0.10700   0.96970
Si         Si      0.44090   0.33390   0.96970
Si         Si      0.89300   0.55910   0.96970
Si         Si      0.55910   0.89300   0.46970
Si         Si      0.10700   0.66610   0.46970
Si         Si      0.33390   0.44090   0.46970
Si         Si      0.44090   0.10700   0.96970
Si         Si      0.89300   0.33390   0.96970
Si         Si      0.66610   0.55910   0.96970
Si         Si      0.55870   0.89190   0.36390
Si         Si      0.33320   0.44130   0.36390
Si         Si      0.10810   0.66680   0.36390
Si         Si      0.44130   0.10810   0.86390
Si         Si      0.66680   0.55870   0.86390
Si         Si      0.89190   0.33320   0.86390
Si         Si      0.33320   0.89190   0.36390
Si         Si      0.10810   0.44130   0.36390
Si         Si      0.55870   0.66680   0.36390
Si         Si      0.66680   0.10810   0.86390
Si         Si      0.89190   0.55870   0.86390
Si         Si      0.44130   0.33320   0.86390
Si         Si      0.44130   0.10810   0.63610
Si         Si      0.66680   0.55870   0.63610
Si         Si      0.89190   0.33320   0.63610
Si         Si      0.55870   0.89190   0.13610
Si         Si      0.33320   0.44130   0.13610
Si         Si      0.10810   0.66680   0.13610
Si         Si      0.66680   0.10810   0.63610
Si         Si      0.89190   0.55870   0.63610
Si         Si      0.44130   0.33320   0.63610
Si         Si      0.33320   0.89190   0.13610
Si         Si      0.10810   0.44130   0.13610
Si         Si      0.55870   0.66680   0.13610
O          O       0.74180   0.74300   0.75000
O          O       0.00120   0.25820   0.75000
O          O       0.25700   0.99880   0.75000
O          O       0.25820   0.25700   0.25000
O          O       0.99880   0.74180   0.25000
O          O       0.74300   0.00120   0.25000
O          O       0.00120   0.74300   0.75000
O          O       0.25700   0.25820   0.75000
O          O       0.74180   0.99880   0.75000
O          O       0.99880   0.25700   0.25000
O          O       0.74300   0.74180   0.25000
O          O       0.25820   0.00120   0.25000
O          O       0.75850   0.87920   0.81630
O          O       0.12070   0.24150   0.81630
O          O       0.12080   0.87930   0.81630
O          O       0.24150   0.12080   0.31630
O          O       0.87930   0.75850   0.31630
O          O       0.87920   0.12070   0.31630
O          O       0.24150   0.12080   0.18370
O          O       0.87930   0.75850   0.18370
O          O       0.87920   0.12070   0.18370
O          O       0.75850   0.87920   0.68370
O          O       0.12070   0.24150   0.68370
O          O       0.12080   0.87930   0.68370
O          O       0.69300   0.66710   0.83360
O          O       0.97410   0.30700   0.83360
O          O       0.33290   0.02590   0.83360
O          O       0.30700   0.33290   0.33360
O          O       0.02590   0.69300   0.33360
O          O       0.66710   0.97410   0.33360
O          O       0.97410   0.66710   0.83360
O          O       0.33290   0.30700   0.83360
O          O       0.69300   0.02590   0.83360
O          O       0.02590   0.33290   0.33360
O          O       0.66710   0.69300   0.33360
O          O       0.30700   0.97410   0.33360
O          O       0.30700   0.33290   0.16640
O          O       0.02590   0.69300   0.16640
O          O       0.66710   0.97410   0.16640
O          O       0.69300   0.66710   0.66640
O          O       0.97410   0.30700   0.66640
O          O       0.33290   0.02590   0.66640
O          O       0.02590   0.33290   0.16640
O          O       0.66710   0.69300   0.16640
O          O       0.30700   0.97410   0.16640
O          O       0.97410   0.66710   0.66640
O          O       0.33290   0.30700   0.66640
O          O       0.69300   0.02590   0.66640
O          O       0.90350   0.80700   0.81070
O          O       0.90350   0.09650   0.81070
O          O       0.19300   0.09650   0.81070
O          O       0.09650   0.19300   0.31070
O          O       0.09650   0.90350   0.31070
O          O       0.80700   0.90350   0.31070
O          O       0.09650   0.19300   0.18930
O          O       0.09650   0.90350   0.18930
O          O       0.80700   0.90350   0.18930
O          O       0.90350   0.80700   0.68930
O          O       0.90350   0.09650   0.68930
O          O       0.19300   0.09650   0.68930
O          O       0.66530   0.07740   0.58320
O          O       0.41210   0.33470   0.58320
O          O       0.92260   0.58790   0.58320
O          O       0.33470   0.92260   0.08320
O          O       0.58790   0.66530   0.08320
O          O       0.07740   0.41210   0.08320
O          O       0.41210   0.07740   0.58320
O          O       0.92260   0.33470   0.58320
O          O       0.66530   0.58790   0.58320
O          O       0.58790   0.92260   0.08320
O          O       0.07740   0.66530   0.08320
O          O       0.33470   0.41210   0.08320
O          O       0.33470   0.92260   0.41680
O          O       0.58790   0.66530   0.41680
O          O       0.07740   0.41210   0.41680
O          O       0.66530   0.07740   0.91680
O          O       0.41210   0.33470   0.91680
O          O       0.92260   0.58790   0.91680
O          O       0.58790   0.92260   0.41680
O          O       0.07740   0.66530   0.41680
O          O       0.33470   0.41210   0.41680
O          O       0.41210   0.07740   0.91680
O          O       0.92260   0.33470   0.91680
O          O       0.66530   0.58790   0.91680
O          O       0.78680   0.21310   0.51720
O          O       0.42630   0.21320   0.51720
O          O       0.78690   0.57370   0.51720
O          O       0.21320   0.78690   0.01720
O          O       0.57370   0.78680   0.01720
O          O       0.21310   0.42630   0.01720
O          O       0.21320   0.78690   0.48280
O          O       0.57370   0.78680   0.48280
O          O       0.21310   0.42630   0.48280
O          O       0.78680   0.21310   0.98280
O          O       0.42630   0.21320   0.98280
O          O       0.78690   0.57370   0.98280
O          O       0.64410   0.00000   0.50000
O          O       0.35590   0.35590   0.50000
O          O       0.00000   0.64410   0.50000
O          O       0.35590   1.00000   1.00000
O          O       0.64410   0.64410   0.00000
O          O       0.00000   0.35590   1.00000
O          O       0.35590   1.00000   0.50000
O          O       0.00000   0.35590   0.50000
O          O       0.64410   0.64410   0.50000
O          O       0.64410   0.00000   0.00000
O          O       0.00000   0.64410   1.00000
O          O       0.35590   0.35590   0.00000
O          O       0.56870   0.13740   0.52050
O          O       0.56870   0.43130   0.52050
O          O       0.86260   0.43130   0.52050
O          O       0.43130   0.86260   0.02050
O          O       0.43130   0.56870   0.02050
O          O       0.13740   0.56870   0.02050
O          O       0.43130   0.86260   0.47950
O          O       0.43130   0.56870   0.47950
O          O       0.13740   0.56870   0.47950
O          O       0.56870   0.13740   0.97950
O          O       0.56870   0.43130   0.97950
O          O       0.86260   0.43130   0.97950
O          O       0.52580   0.76290   0.35540
O          O       0.23710   0.47420   0.35540
O          O       0.23710   0.76290   0.35540
O          O       0.47420   0.23710   0.85540
O          O       0.76290   0.52580   0.85540
O          O       0.76290   0.23710   0.85540
O          O       0.47420   0.23710   0.64460
O          O       0.76290   0.52580   0.64460
O          O       0.76290   0.23710   0.64460
O          O       0.52580   0.76290   0.14460
O          O       0.23710   0.47420   0.14460
O          O       0.23710   0.76290   0.14460
O          O       0.45420   0.90840   0.34990
O          O       0.45420   0.54580   0.34990
O          O       0.09160   0.54580   0.34990
O          O       0.54580   0.09160   0.84990
O          O       0.54580   0.45420   0.84990
O          O       0.90840   0.45420   0.84990
O          O       0.54580   0.09160   0.65010
O          O       0.54580   0.45420   0.65010
O          O       0.90840   0.45420   0.65010
O          O       0.45420   0.90840   0.15010
O          O       0.45420   0.54580   0.15010
O          O       0.09160   0.54580   0.15010
