data_crystal

_cell_length_a    12.58380
_cell_length_b    13.22610
_cell_length_c    13.22610
_cell_angle_alpha 120.00000
_cell_angle_beta  90.00000
_cell_angle_gamma 90.00000

_space_group_name_Hall 'P 1'
_space_group_name_H-M_alt 'P 1'

loop_
_symmetry_equiv_pos_as_xyz
 'x,y,z'

loop_
_atom_site_label
_atom_site_type_symbol
_atom_site_fract_x
_atom_site_fract_y
_atom_site_fract_z
Si         Si      0.82500   0.56510   0.66520
Si         Si      0.82500   0.10010   0.43490
Si         Si      0.82500   0.33480   0.89990
Si         Si      0.17500   0.89990   0.33480
Si         Si      0.17500   0.66520   0.56510
Si         Si      0.17500   0.43490   0.10010
Si         Si      0.17500   0.43490   0.33480
Si         Si      0.17500   0.89990   0.56510
Si         Si      0.17500   0.66520   0.10010
Si         Si      0.82500   0.10010   0.66520
Si         Si      0.82500   0.33480   0.43490
Si         Si      0.82500   0.56510   0.89990
Si         Si      0.58500   0.56380   0.66360
Si         Si      0.58500   0.09980   0.43620
Si         Si      0.58500   0.33640   0.90020
Si         Si      0.41500   0.90020   0.33640
Si         Si      0.41500   0.66360   0.56380
Si         Si      0.41500   0.43620   0.09980
Si         Si      0.41500   0.43620   0.33640
Si         Si      0.41500   0.90020   0.56380
Si         Si      0.41500   0.66360   0.09980
Si         Si      0.58500   0.09980   0.66360
Si         Si      0.58500   0.33640   0.43620
Si         Si      0.58500   0.56380   0.90020
Si         Si      0.00000   1.00000   0.23770
Si         Si      1.00000   0.23770   0.00000
Si         Si      1.00000   0.76230   0.76230
Si         Si      0.00000   1.00000   0.76230
Si         Si      0.00000   0.76230   1.00000
Si         Si      1.00000   0.23770   0.23770
O          O       0.82810   0.52780   0.76390
O          O       0.82810   0.23610   0.47220
O          O       0.82810   0.23610   0.76390
O          O       0.17190   0.76390   0.23610
O          O       0.17190   0.76390   0.52780
O          O       0.17190   0.47220   0.23610
O          O       0.89890   0.67800   0.70460
O          O       0.89890   0.02660   0.32200
O          O       0.89890   0.29540   0.97340
O          O       0.10110   0.97340   0.29540
O          O       0.10110   0.70460   0.67800
O          O       0.10110   0.32200   0.02660
O          O       0.10110   0.32200   0.29540
O          O       0.10110   0.97340   0.67800
O          O       0.10110   0.70460   0.02660
O          O       0.89890   0.02660   0.70460
O          O       0.89890   0.29540   0.32200
O          O       0.89890   0.67800   0.97340
O          O       0.86460   0.45740   0.54260
O          O       0.86460   0.08520   0.54260
O          O       0.86460   0.45740   0.91480
O          O       0.13540   0.91480   0.45740
O          O       0.13540   0.54260   0.45740
O          O       0.13540   0.54260   0.08520
O          O       0.70490   0.59760   0.65000
O          O       0.70490   0.05240   0.40240
O          O       0.70490   0.35000   0.94760
O          O       0.29510   0.94760   0.35000
O          O       0.29510   0.65000   0.59760
O          O       0.29510   0.40240   0.05240
O          O       0.29510   0.40240   0.35000
O          O       0.29510   0.94760   0.59760
O          O       0.29510   0.65000   0.05240
O          O       0.70490   0.05240   0.65000
O          O       0.70490   0.35000   0.40240
O          O       0.70490   0.59760   0.94760
O          O       0.56480   0.42750   0.57250
O          O       0.56480   0.14500   0.57250
O          O       0.56480   0.42750   0.85500
O          O       0.43520   0.85500   0.42750
O          O       0.43520   0.57250   0.42750
O          O       0.43520   0.57250   0.14500
O          O       0.50000   0.64130   0.64130
O          O       0.50000   1.00000   0.35870
O          O       0.50000   0.35870   1.00000
O          O       0.50000   0.35870   0.35870
O          O       0.50000   1.00000   0.64130
O          O       0.50000   0.64130   0.00000
O          O       0.56730   0.58940   0.79470
O          O       0.56730   0.20530   0.41060
O          O       0.56730   0.20530   0.79470
O          O       0.43270   0.79470   0.20530
O          O       0.43270   0.79470   0.58940
O          O       0.43270   0.41060   0.20530
O          O       0.02430   0.11170   0.22340
O          O       0.02430   0.11170   0.88830
O          O       0.02430   0.77660   0.88830
O          O       0.97570   0.88830   0.77660
O          O       0.97570   0.22340   0.11170
O          O       0.97570   0.88830   0.11170
