data_crystal

_cell_length_a    13.67400
_cell_length_b    13.67400
_cell_length_c    19.69500
_cell_angle_alpha 90.00000
_cell_angle_beta  90.00000
_cell_angle_gamma 120.00000

_space_group_name_Hall 'P 1'
_space_group_name_H-M_alt 'P 1'

loop_
_symmetry_equiv_pos_as_xyz
 'x,y,z'

loop_
_atom_site_label
_atom_site_type_symbol
_atom_site_fract_x
_atom_site_fract_y
_atom_site_fract_z
Si         Si      0.99970   0.22650   0.92120
Si         Si      0.22680   0.00030   0.92120
Si         Si      0.77350   0.77320   0.92120
Si         Si      0.00030   0.77350   0.42120
Si         Si      0.77320   0.99970   0.42120
Si         Si      0.22650   0.22680   0.42120
Si         Si      0.22680   0.22650   0.92120
Si         Si      0.77350   0.00030   0.92120
Si         Si      0.99970   0.77320   0.92120
Si         Si      0.77320   0.77350   0.42120
Si         Si      0.22650   0.99970   0.42120
Si         Si      0.00030   0.22680   0.42120
Si         Si      0.00030   0.77350   0.07880
Si         Si      0.77320   0.99970   0.07880
Si         Si      0.22650   0.22680   0.07880
Si         Si      0.99970   0.22650   0.57880
Si         Si      0.22680   0.00030   0.57880
Si         Si      0.77350   0.77320   0.57880
Si         Si      0.77320   0.77350   0.07880
Si         Si      0.22650   0.99970   0.07880
Si         Si      0.00030   0.22680   0.07880
Si         Si      0.22680   0.22650   0.57880
Si         Si      0.77350   0.00030   0.57880
Si         Si      0.99970   0.77320   0.57880
Si         Si      0.66710   0.10690   0.82880
Si         Si      0.43980   0.33290   0.82880
Si         Si      0.89310   0.56020   0.82880
Si         Si      0.33290   0.89310   0.32880
Si         Si      0.56020   0.66710   0.32880
Si         Si      0.10690   0.43980   0.32880
Si         Si      0.43980   0.10690   0.82880
Si         Si      0.89310   0.33290   0.82880
Si         Si      0.66710   0.56020   0.82880
Si         Si      0.56020   0.89310   0.32880
Si         Si      0.10690   0.66710   0.32880
Si         Si      0.33290   0.43980   0.32880
Si         Si      0.33290   0.89310   0.17120
Si         Si      0.56020   0.66710   0.17120
Si         Si      0.10690   0.43980   0.17120
Si         Si      0.66710   0.10690   0.67120
Si         Si      0.43980   0.33290   0.67120
Si         Si      0.89310   0.56020   0.67120
Si         Si      0.56020   0.89310   0.17120
Si         Si      0.10690   0.66710   0.17120
Si         Si      0.33290   0.43980   0.17120
Si         Si      0.43980   0.10690   0.67120
Si         Si      0.89310   0.33290   0.67120
Si         Si      0.66710   0.56020   0.67120
O          O       0.90200   0.09800   0.90800
O          O       0.19600   0.09800   0.90800
O          O       0.90200   0.80400   0.90800
O          O       0.09800   0.90200   0.40800
O          O       0.80400   0.90200   0.40800
O          O       0.09800   0.19600   0.40800
O          O       0.09800   0.90200   0.09200
O          O       0.80400   0.90200   0.09200
O          O       0.09800   0.19600   0.09200
O          O       0.90200   0.09800   0.59200
O          O       0.19600   0.09800   0.59200
O          O       0.90200   0.80400   0.59200
O          O       0.12030   0.24060   0.90140
O          O       0.12030   0.87970   0.90140
O          O       0.75940   0.87970   0.90140
O          O       0.87970   0.75940   0.40140
O          O       0.87970   0.12030   0.40140
O          O       0.24060   0.12030   0.40140
O          O       0.87970   0.75940   0.09860
O          O       0.87970   0.12030   0.09860
O          O       0.24060   0.12030   0.09860
O          O       0.12030   0.24060   0.59860
O          O       0.12030   0.87970   0.59860
O          O       0.75940   0.87970   0.59860
O          O       1.00000   0.25770   1.00000
O          O       0.25770   1.00000   0.00000
O          O       0.74230   0.74230   0.00000
O          O       1.00000   0.74230   0.50000
O          O       0.74230   1.00000   0.50000
O          O       0.25770   0.25770   0.50000
O          O       0.25770   0.25770   1.00000
O          O       0.74230   1.00000   0.00000
O          O       1.00000   0.74230   0.00000
O          O       0.74230   0.74230   0.50000
O          O       0.25770   1.00000   0.50000
O          O       1.00000   0.25770   0.50000
O          O       0.97680   0.31020   0.87500
O          O       0.33340   0.02320   0.87500
O          O       0.68980   0.66660   0.87500
O          O       0.02320   0.68980   0.37500
O          O       0.66660   0.97680   0.37500
O          O       0.31020   0.33340   0.37500
O          O       0.33340   0.31020   0.87500
O          O       0.68980   0.02320   0.87500
O          O       0.97680   0.66660   0.87500
O          O       0.66660   0.68980   0.37500
O          O       0.31020   0.97680   0.37500
O          O       0.02320   0.33340   0.37500
O          O       0.02320   0.68980   0.12500
O          O       0.66660   0.97680   0.12500
O          O       0.31020   0.33340   0.12500
O          O       0.97680   0.31020   0.62500
O          O       0.33340   0.02320   0.62500
O          O       0.68980   0.66660   0.62500
O          O       0.66660   0.68980   0.12500
O          O       0.31020   0.97680   0.12500
O          O       0.02320   0.33340   0.12500
O          O       0.33340   0.31020   0.62500
O          O       0.68980   0.02320   0.62500
O          O       0.97680   0.66660   0.62500
O          O       0.76460   0.23550   0.84230
O          O       0.47090   0.23540   0.84230
O          O       0.76450   0.52910   0.84230
O          O       0.23540   0.76450   0.34230
O          O       0.52910   0.76460   0.34230
O          O       0.23550   0.47090   0.34230
O          O       0.23540   0.76450   0.15770
O          O       0.52910   0.76460   0.15770
O          O       0.23550   0.47090   0.15770
O          O       0.76460   0.23550   0.65770
O          O       0.47090   0.23540   0.65770
O          O       0.76450   0.52910   0.65770
O          O       0.66750   0.07600   0.75000
O          O       0.40850   0.33250   0.75000
O          O       0.92400   0.59150   0.75000
O          O       0.33250   0.92400   0.25000
O          O       0.59150   0.66750   0.25000
O          O       0.07600   0.40850   0.25000
O          O       0.40850   0.07600   0.75000
O          O       0.92400   0.33250   0.75000
O          O       0.66750   0.59150   0.75000
O          O       0.59150   0.92400   0.25000
O          O       0.07600   0.66750   0.25000
O          O       0.33250   0.40850   0.25000
O          O       0.54630   0.09260   0.84820
O          O       0.54630   0.45370   0.84820
O          O       0.90740   0.45370   0.84820
O          O       0.45370   0.90740   0.34820
O          O       0.45370   0.54630   0.34820
O          O       0.09260   0.54630   0.34820
O          O       0.45370   0.90740   0.15180
O          O       0.45370   0.54630   0.15180
O          O       0.09260   0.54630   0.15180
O          O       0.54630   0.09260   0.65180
O          O       0.54630   0.45370   0.65180
O          O       0.90740   0.45370   0.65180
