data_crystal

_cell_length_a    8.60300
_cell_length_b    12.33000
_cell_length_c    12.33000
_cell_angle_alpha 120.00000
_cell_angle_beta  90.00000
_cell_angle_gamma 90.00000

_space_group_name_Hall 'P 1'
_space_group_name_H-M_alt 'P 1'

loop_
_symmetry_equiv_pos_as_xyz
 'x,y,z'

loop_
_atom_site_label
_atom_site_type_symbol
_atom_site_fract_x
_atom_site_fract_y
_atom_site_fract_z
Si         Si      0.60480   0.67490   0.53900
Si         Si      0.60480   0.86410   0.32510
Si         Si      0.60480   0.46100   0.13590
Si         Si      0.60480   0.13590   0.46100
Si         Si      0.60480   0.53900   0.67490
Si         Si      0.60480   0.32510   0.86410
Si         Si      0.39520   0.32510   0.46100
Si         Si      0.39520   0.13590   0.67490
Si         Si      0.39520   0.53900   0.86410
Si         Si      0.39520   0.86410   0.53900
Si         Si      0.39520   0.46100   0.32510
Si         Si      0.39520   0.67490   0.13590
Si         Si      0.81320   0.33333   0.66667
Si         Si      0.81320   0.66667   0.33333
Si         Si      0.18680   0.66667   0.33333
Si         Si      0.18680   0.33333   0.66667
O          O       0.75090   0.69130   0.46700
O          O       0.75090   0.77570   0.30870
O          O       0.75090   0.53300   0.22430
O          O       0.75090   0.22430   0.53300
O          O       0.75090   0.46700   0.69130
O          O       0.75090   0.30870   0.77570
O          O       0.24910   0.30870   0.53300
O          O       0.24910   0.22430   0.69130
O          O       0.24910   0.46700   0.77570
O          O       0.24910   0.77570   0.46700
O          O       0.24910   0.53300   0.30870
O          O       0.24910   0.69130   0.22430
O          O       0.66320   0.64680   0.64680
O          O       0.66320   1.00000   0.35320
O          O       0.66320   0.35320   0.00000
O          O       0.33680   0.35320   0.35320
O          O       0.33680   1.00000   0.64680
O          O       0.33680   0.64680   1.00000
O          O       0.50000   0.80000   0.60000
O          O       0.50000   0.80000   0.20000
O          O       0.50000   0.40000   0.20000
O          O       0.50000   0.20000   0.40000
O          O       0.50000   0.60000   0.80000
O          O       0.50000   0.20000   0.80000
O          O       0.50000   0.55900   0.44100
O          O       0.50000   0.88200   0.44100
O          O       0.50000   0.55900   0.11800
O          O       0.50000   0.11800   0.55900
O          O       0.50000   0.44100   0.55900
O          O       0.50000   0.44100   0.88200
O          O       0.00000   0.33333   0.66667
O          O       0.00000   0.66667   0.33333
