data_crystal

_cell_length_a    8.58900
_cell_length_b    9.14058
_cell_length_c    9.14058
_cell_angle_alpha 119.52593
_cell_angle_beta  90.00000
_cell_angle_gamma 90.00000

_space_group_name_Hall 'P 1'
_space_group_name_H-M_alt 'P 1'

loop_
_symmetry_equiv_pos_as_xyz
 'x,y,z'

loop_
_atom_site_label
_atom_site_type_symbol
_atom_site_fract_x
_atom_site_fract_y
_atom_site_fract_z
O          O       0.49850   0.82820   0.66100
O          O       0.49850   0.66100   0.82820
O          O       0.99850   0.33900   0.17180
O          O       0.99850   0.17180   0.33900
O          O       0.50150   0.17180   0.33900
O          O       0.50150   0.33900   0.17180
O          O       0.00150   0.66100   0.82820
O          O       0.00150   0.82820   0.66100
O          O       0.50000   0.66960   0.33040
O          O       0.50000   0.33040   0.66960
O          O       0.00000   0.66960   0.33040
O          O       0.00000   0.33040   0.66960
O          O       0.25000   0.83260   0.49580
O          O       0.25000   0.49580   0.83260
O          O       0.75000   0.50420   0.16740
O          O       0.75000   0.16740   0.50420
O          O       0.50000   0.00000   0.50000
O          O       0.50000   0.50000   0.00000
O          O       0.00000   0.50000   0.00000
O          O       0.00000   0.00000   0.50000
O          O       0.25000   0.33460   0.33460
O          O       0.75000   0.66540   0.66540
O          O       0.50000   0.50000   0.50000
O          O       0.00000   0.50000   0.50000
Si         Si      0.43720   0.83270   0.49650
Si         Si      0.43720   0.49650   0.83270
Si         Si      0.93720   0.50350   0.16730
Si         Si      0.93720   0.16730   0.50350
Si         Si      0.56280   0.16730   0.50350
Si         Si      0.56280   0.50350   0.16730
Si         Si      0.06280   0.49650   0.83270
Si         Si      0.06280   0.83270   0.49650
Si         Si      0.43710   0.33560   0.33560
Si         Si      0.93710   0.66440   0.66440
Si         Si      0.56290   0.66440   0.66440
Si         Si      0.06290   0.33560   0.33560
