data_crystal

_cell_length_a    11.74937
_cell_length_b    11.74937
_cell_length_c    11.74937
_cell_angle_alpha 109.47122
_cell_angle_beta  109.47122
_cell_angle_gamma 109.47122

_space_group_name_Hall 'P 1'
_space_group_name_H-M_alt 'P 1'

loop_
_symmetry_equiv_pos_as_xyz
 'x,y,z'

loop_
_atom_site_label
_atom_site_type_symbol
_atom_site_fract_x
_atom_site_fract_y
_atom_site_fract_z
O          O       0.11330   0.52370   0.35360
O          O       0.75970   0.64640   0.17010
O          O       0.58960   0.82990   0.47630
O          O       0.61330   0.75970   0.08960
O          O       0.25970   0.58960   0.61330
O          O       0.08960   0.11330   0.25970
O          O       0.82990   0.74030   0.85360
O          O       0.52370   0.91040   0.67010
O          O       0.64640   0.38670   0.97630
O          O       0.32990   0.97630   0.58960
O          O       0.02370   0.85360   0.11330
O          O       0.14640   0.67010   0.75970
O          O       0.61330   0.35360   0.52370
O          O       0.25970   0.17010   0.64640
O          O       0.08960   0.47630   0.82990
O          O       0.11330   0.08960   0.75970
O          O       0.75970   0.61330   0.58960
O          O       0.58960   0.25970   0.11330
O          O       0.32990   0.85360   0.74030
O          O       0.02370   0.67010   0.91040
O          O       0.14640   0.97630   0.38670
O          O       0.82990   0.58960   0.97630
O          O       0.52370   0.11330   0.85360
O          O       0.64640   0.75970   0.67010
O          O       0.88670   0.47630   0.64640
O          O       0.24030   0.35360   0.82990
O          O       0.41040   0.17010   0.52370
O          O       0.38670   0.24030   0.91040
O          O       0.74030   0.41040   0.38670
O          O       0.91040   0.88670   0.74030
O          O       0.17010   0.25970   0.14640
O          O       0.47630   0.08960   0.32990
O          O       0.35360   0.61330   0.02370
O          O       0.67010   0.02370   0.41040
O          O       0.97630   0.14640   0.88670
O          O       0.85360   0.32990   0.24030
O          O       0.38670   0.64640   0.47630
O          O       0.74030   0.82990   0.35360
O          O       0.91040   0.52370   0.17010
O          O       0.88670   0.91040   0.24030
O          O       0.24030   0.38670   0.41040
O          O       0.41040   0.74030   0.88670
O          O       0.67010   0.14640   0.25970
O          O       0.97630   0.32990   0.08960
O          O       0.85360   0.02370   0.61330
O          O       0.17010   0.41040   0.02370
O          O       0.47630   0.88670   0.14640
O          O       0.35360   0.24030   0.32990
Si         Si      0.25000   0.53660   0.46340
Si         Si      0.78660   0.53660   0.07320
Si         Si      0.71340   0.92680   0.46340
Si         Si      0.75000   0.78660   0.21340
Si         Si      0.28660   0.71340   0.75000
Si         Si      0.21340   0.25000   0.28660
Si         Si      0.92680   0.71340   0.96340
Si         Si      0.53660   0.78660   0.57320
Si         Si      0.53660   0.25000   0.96340
Si         Si      0.42680   0.96340   0.71340
Si         Si      0.03660   0.96340   0.25000
Si         Si      0.03660   0.57320   0.78660
Si         Si      0.75000   0.46340   0.53660
Si         Si      0.28660   0.07320   0.53660
Si         Si      0.21340   0.46340   0.92680
Si         Si      0.25000   0.21340   0.78660
Si         Si      0.78660   0.75000   0.71340
Si         Si      0.71340   0.28660   0.25000
Si         Si      0.07320   0.28660   0.03660
Si         Si      0.46340   0.21340   0.42680
Si         Si      0.46340   0.75000   0.03660
Si         Si      0.57320   0.03660   0.28660
Si         Si      0.96340   0.03660   0.75000
Si         Si      0.96340   0.42680   0.21340
