data_crystal

_cell_length_a    8.99200
_cell_length_b    10.39200
_cell_length_c    10.67135
_cell_angle_alpha 90.00000
_cell_angle_beta  114.91764
_cell_angle_gamma 90.00000

_space_group_name_Hall 'P 1'
_space_group_name_H-M_alt 'P 1'

loop_
_symmetry_equiv_pos_as_xyz
 'x,y,z'

loop_
_atom_site_label
_atom_site_type_symbol
_atom_site_fract_x
_atom_site_fract_y
_atom_site_fract_z
O          O       0.25380   0.50000   0.00000
O          O       0.74620   0.50000   0.00000
O          O       0.75380   0.00000   0.00000
O          O       0.24620   0.00000   0.00000
O          O       0.27100   0.75000   0.04200
O          O       0.77100   0.75000   0.04200
O          O       0.72900   0.25000   0.95800
O          O       0.22900   0.25000   0.95800
O          O       0.41880   0.59210   0.25100
O          O       0.83220   0.59210   0.25100
O          O       0.66780   0.09210   0.74900
O          O       0.08120   0.09210   0.74900
O          O       0.58120   0.40790   0.74900
O          O       0.16780   0.40790   0.74900
O          O       0.33220   0.90790   0.25100
O          O       0.91880   0.90790   0.25100
O          O       0.53080   0.62200   0.06160
O          O       0.96920   0.12200   0.93840
O          O       0.46920   0.37800   0.93840
O          O       0.03080   0.87800   0.06160
O          O       0.47950   0.75000   0.45900
O          O       0.97950   0.75000   0.45900
O          O       0.52050   0.25000   0.54100
O          O       0.02050   0.25000   0.54100
O          O       0.50000   0.00000   0.50000
O          O       0.00000   1.00000   0.50000
O          O       0.50000   0.50000   0.50000
O          O       0.00000   0.50000   0.50000
O          O       0.22070   0.88040   0.44140
O          O       0.27930   0.38040   0.55860
O          O       0.77930   0.11960   0.55860
O          O       0.72070   0.61960   0.44140
Si         Si      0.36850   0.61600   0.08940
Si         Si      0.72090   0.61600   0.08940
Si         Si      0.77910   0.11600   0.91060
Si         Si      0.13150   0.11600   0.91060
Si         Si      0.63150   0.38400   0.91060
Si         Si      0.27910   0.38400   0.91060
Si         Si      0.22090   0.88400   0.08940
Si         Si      0.86850   0.88400   0.08940
Si         Si      0.38270   0.88460   0.41300
Si         Si      0.03030   0.88460   0.41300
Si         Si      0.46970   0.38460   0.58700
Si         Si      0.11730   0.38460   0.58700
Si         Si      0.61730   0.11540   0.58700
Si         Si      0.96970   0.11540   0.58700
Si         Si      0.53030   0.61540   0.41300
Si         Si      0.88270   0.61540   0.41300
