data_crystal

_cell_length_a    8.72400
_cell_length_b    10.16600
_cell_length_c    10.93746
_cell_angle_alpha 90.00000
_cell_angle_beta  113.50400
_cell_angle_gamma 90.00000

_space_group_name_Hall 'P 1'
_space_group_name_H-M_alt 'P 1'

loop_
_symmetry_equiv_pos_as_xyz
 'x,y,z'

loop_
_atom_site_label
_atom_site_type_symbol
_atom_site_fract_x
_atom_site_fract_y
_atom_site_fract_z
O          O       0.78630   1.00000   0.00000
O          O       0.21370   0.00000   1.00000
O          O       0.28630   0.50000   0.00000
O          O       0.71370   0.50000   0.00000
O          O       0.93270   0.12580   0.86540
O          O       0.56730   0.62580   0.13460
O          O       0.06730   0.87420   0.13460
O          O       0.43270   0.37420   0.86540
O          O       0.71980   0.25000   0.93960
O          O       0.21980   0.25000   0.93960
O          O       0.28020   0.75000   0.06040
O          O       0.78020   0.75000   0.06040
O          O       0.61260   0.07010   0.75200
O          O       0.13940   0.07010   0.75200
O          O       0.36060   0.57010   0.24800
O          O       0.88740   0.57010   0.24800
O          O       0.38740   0.92990   0.24800
O          O       0.86060   0.92990   0.24800
O          O       0.63940   0.42990   0.75200
O          O       0.11260   0.42990   0.75200
O          O       0.29730   0.10940   0.59460
O          O       0.20270   0.60940   0.40540
O          O       0.70270   0.89060   0.40540
O          O       0.79730   0.39060   0.59460
O          O       0.53200   0.25000   0.56400
O          O       0.03200   0.25000   0.56400
O          O       0.46800   0.75000   0.43600
O          O       0.96800   0.75000   0.43600
O          O       0.50000   0.00000   0.50000
O          O       0.00000   1.00000   0.50000
O          O       0.50000   0.50000   0.50000
O          O       0.00000   0.50000   0.50000
Si         Si      0.76330   0.11140   0.88960
Si         Si      0.12630   0.11140   0.88960
Si         Si      0.37370   0.61140   0.11040
Si         Si      0.73670   0.61140   0.11040
Si         Si      0.23670   0.88860   0.11040
Si         Si      0.87370   0.88860   0.11040
Si         Si      0.62630   0.38860   0.88960
Si         Si      0.26330   0.38860   0.88960
Si         Si      0.48540   0.10730   0.60280
Si         Si      0.11740   0.10730   0.60280
Si         Si      0.38260   0.60730   0.39720
Si         Si      0.01460   0.60730   0.39720
Si         Si      0.51460   0.89270   0.39720
Si         Si      0.88260   0.89270   0.39720
Si         Si      0.61740   0.39270   0.60280
Si         Si      0.98540   0.39270   0.60280
