data_crystal

_cell_length_a    9.63362
_cell_length_b    9.63362
_cell_length_c    9.63362
_cell_angle_alpha 60.00000
_cell_angle_beta  60.00000
_cell_angle_gamma 60.00000

_space_group_name_Hall 'P 1'
_space_group_name_H-M_alt 'P 1'

loop_
_symmetry_equiv_pos_as_xyz
 'x,y,z'

loop_
_atom_site_label
_atom_site_type_symbol
_atom_site_fract_x
_atom_site_fract_y
_atom_site_fract_z
O          O       0.72700   1.00000   1.00000
O          O       0.00000   1.00000   0.72700
O          O       0.00000   0.72700   1.00000
O          O       0.72700   0.27300   0.00000
O          O       0.72700   0.00000   0.27300
O          O       0.00000   0.27300   0.72700
O          O       0.27300   1.00000   0.72700
O          O       0.00000   0.27300   1.00000
O          O       0.00000   0.72700   0.27300
O          O       0.27300   0.72700   0.00000
O          O       1.00000   0.00000   0.27300
O          O       0.27300   1.00000   0.00000
O          O       0.81820   0.81820   0.81820
O          O       0.45460   0.18180   0.18180
O          O       0.18180   0.18180   0.45460
O          O       0.81820   0.54540   0.81820
O          O       0.18180   0.45460   0.18180
O          O       0.81820   0.81820   0.54540
O          O       0.18180   0.18180   0.18180
O          O       0.54540   0.81820   0.81820
Si         Si      0.88630   0.88630   0.88630
Si         Si      0.65890   0.11370   0.11370
Si         Si      0.11370   0.11370   0.65890
Si         Si      0.88630   0.34110   0.88630
Si         Si      0.11370   0.65890   0.11370
Si         Si      0.88630   0.88630   0.34110
Si         Si      0.11370   0.11370   0.11370
Si         Si      0.34110   0.88630   0.88630
Si         Si      0.25000   0.25000   0.25000
Si         Si      0.75000   0.75000   0.75000
