data_crystal

_cell_length_a    8.67400
_cell_length_b    8.67400
_cell_length_c    13.91900
_cell_angle_alpha 90.00000
_cell_angle_beta  90.00000
_cell_angle_gamma 90.00000

_space_group_name_Hall 'P 1'
_space_group_name_H-M_alt 'P 1'

loop_
_symmetry_equiv_pos_as_xyz
 'x,y,z'

loop_
_atom_site_label
_atom_site_type_symbol
_atom_site_fract_x
_atom_site_fract_y
_atom_site_fract_z
Si         Si      0.25340   0.43080   0.11140
Si         Si      0.56920   0.25340   0.11140
Si         Si      0.74660   0.56920   0.11140
Si         Si      0.43080   0.74660   0.11140
Si         Si      0.74660   0.43080   0.61140
Si         Si      0.43080   0.25340   0.61140
Si         Si      0.25340   0.56920   0.61140
Si         Si      0.56920   0.74660   0.61140
Si         Si      0.74660   0.56920   0.88860
Si         Si      0.43080   0.74660   0.88860
Si         Si      0.25340   0.43080   0.88860
Si         Si      0.56920   0.25340   0.88860
Si         Si      0.25340   0.56920   0.38860
Si         Si      0.56920   0.74660   0.38860
Si         Si      0.74660   0.43080   0.38860
Si         Si      0.43080   0.25340   0.38860
Si         Si      0.00000   0.50000   0.25000
Si         Si      0.50000   0.00000   0.25000
Si         Si      0.00000   0.50000   0.75000
Si         Si      0.50000   0.00000   0.75000
O          O       0.10890   0.60740   0.31780
O          O       0.39260   0.10890   0.31780
O          O       0.89110   0.39260   0.31780
O          O       0.60740   0.89110   0.31780
O          O       0.89110   0.60740   0.81780
O          O       0.60740   0.10890   0.81780
O          O       0.10890   0.39260   0.81780
O          O       0.39260   0.89110   0.81780
O          O       0.89110   0.39260   0.68220
O          O       0.60740   0.89110   0.68220
O          O       0.10890   0.60740   0.68220
O          O       0.39260   0.10890   0.68220
O          O       0.10890   0.39260   0.18220
O          O       0.39260   0.89110   0.18220
O          O       0.89110   0.60740   0.18220
O          O       0.60740   0.10890   0.18220
O          O       0.19850   0.41550   0.00000
O          O       0.58450   0.19850   0.00000
O          O       0.80150   0.58450   0.00000
O          O       0.41550   0.80150   0.00000
O          O       0.80150   0.41550   0.50000
O          O       0.41550   0.19850   0.50000
O          O       0.19850   0.58450   0.50000
O          O       0.58450   0.80150   0.50000
O          O       0.39380   0.31100   0.13210
O          O       0.68900   0.39380   0.13210
O          O       0.60620   0.68900   0.13210
O          O       0.31100   0.60620   0.13210
O          O       0.60620   0.31100   0.63210
O          O       0.31100   0.39380   0.63210
O          O       0.39380   0.68900   0.63210
O          O       0.68900   0.60620   0.63210
O          O       0.60620   0.68900   0.86790
O          O       0.31100   0.60620   0.86790
O          O       0.39380   0.31100   0.86790
O          O       0.68900   0.39380   0.86790
O          O       0.39380   0.68900   0.36790
O          O       0.68900   0.60620   0.36790
O          O       0.60620   0.31100   0.36790
O          O       0.31100   0.39380   0.36790
