data_crystal

_cell_length_a    5.25600
_cell_length_b    9.60895
_cell_length_c    9.60895
_cell_angle_alpha 85.71030
_cell_angle_beta  74.12765
_cell_angle_gamma 74.12765

_space_group_name_Hall 'P 1'
_space_group_name_H-M_alt 'P 1'

loop_
_symmetry_equiv_pos_as_xyz
 'x,y,z'

loop_
_atom_site_label
_atom_site_type_symbol
_atom_site_fract_x
_atom_site_fract_y
_atom_site_fract_z
O          O       0.60670   0.50000   0.78660
O          O       0.10670   0.78660   0.50000
O          O       0.89330   0.50000   0.21340
O          O       0.39330   0.21340   0.50000
O          O       0.89330   0.21340   0.50000
O          O       0.39330   0.50000   0.21340
O          O       0.60670   0.78660   0.50000
O          O       0.10670   0.50000   0.78660
O          O       0.50000   0.25810   0.74190
O          O       0.75810   0.74190   0.74190
O          O       0.50000   0.74190   0.25810
O          O       0.24190   0.25810   0.25810
O          O       0.31180   0.37640   0.00000
O          O       0.68820   0.00000   0.62360
O          O       0.68820   0.62360   0.00000
O          O       0.31180   0.00000   0.37640
Si         Si      0.38100   0.40890   0.82910
Si         Si      0.78990   0.82910   0.59110
Si         Si      0.61900   0.59110   0.17090
Si         Si      0.21010   0.17090   0.40890
Si         Si      0.61900   0.17090   0.59110
Si         Si      0.21010   0.40890   0.17090
Si         Si      0.38100   0.82910   0.40890
Si         Si      0.78990   0.59110   0.82910
