data_crystal

_cell_length_a    5.06100
_cell_length_b    20.91400
_cell_length_c    20.91400
_cell_angle_alpha 120.00000
_cell_angle_beta  90.00000
_cell_angle_gamma 90.00000

_space_group_name_Hall 'P 1'
_space_group_name_H-M_alt 'P 1'

loop_
_symmetry_equiv_pos_as_xyz
 'x,y,z'

loop_
_atom_site_label
_atom_site_type_symbol
_atom_site_fract_x
_atom_site_fract_y
_atom_site_fract_z
Si         Si      0.92370   0.38400   0.47010
Si         Si      0.59037   0.71733   0.13677
Si         Si      0.25703   0.05067   0.80343
Si         Si      0.92370   0.08610   0.61600
Si         Si      0.59037   0.41943   0.28267
Si         Si      0.25703   0.75277   0.94933
Si         Si      0.92370   0.52990   0.91390
Si         Si      0.59037   0.86323   0.58057
Si         Si      0.25703   0.19657   0.24723
Si         Si      0.92370   0.08610   0.47010
Si         Si      0.59037   0.41943   0.13677
Si         Si      0.25703   0.75277   0.80343
Si         Si      0.92370   0.52990   0.61600
Si         Si      0.59037   0.86323   0.28267
Si         Si      0.25703   0.19657   0.94933
Si         Si      0.92370   0.38400   0.91390
Si         Si      0.59037   0.71733   0.58057
Si         Si      0.25703   0.05067   0.24723
Si         Si      0.07630   0.61600   0.52990
Si         Si      0.74297   0.94933   0.19657
Si         Si      0.40963   0.28267   0.86323
Si         Si      0.07630   0.91390   0.38400
Si         Si      0.74297   0.24723   0.05067
Si         Si      0.40963   0.58057   0.71733
Si         Si      0.07630   0.47010   0.08610
Si         Si      0.74297   0.80343   0.75277
Si         Si      0.40963   0.13677   0.41943
Si         Si      0.07630   0.91390   0.52990
Si         Si      0.74297   0.24723   0.19657
Si         Si      0.40963   0.58057   0.86323
Si         Si      0.07630   0.47010   0.38400
Si         Si      0.74297   0.80343   0.05067
Si         Si      0.40963   0.13677   0.71733
Si         Si      0.07630   0.61600   0.08610
Si         Si      0.74297   0.94933   0.75277
Si         Si      0.40963   0.28267   0.41943
O          O       0.16670   0.33333   0.46803
O          O       0.83337   0.66667   0.13470
O          O       0.50003   0.00000   0.80137
O          O       0.16670   0.13470   0.66667
O          O       0.83337   0.46803   0.33333
O          O       0.50003   0.80137   0.00000
O          O       0.16670   0.53197   0.86530
O          O       0.83337   0.86530   0.53197
O          O       0.50003   0.19863   0.19863
O          O       0.16670   0.13470   0.46803
O          O       0.83337   0.46803   0.13470
O          O       0.50003   0.80137   0.80137
O          O       0.16670   0.53197   0.66667
O          O       0.83337   0.86530   0.33333
O          O       0.50003   0.19863   1.00000
O          O       0.16670   0.33333   0.86530
O          O       0.83337   0.66667   0.53197
O          O       0.50003   0.00000   0.19863
O          O       0.00000   0.42400   0.42400
O          O       0.66667   0.75733   0.09067
O          O       0.33333   0.09067   0.75733
O          O       0.00000   0.00000   0.57600
O          O       0.66667   0.33333   0.24267
O          O       0.33333   0.66667   0.90933
O          O       1.00000   0.57600   0.00000
O          O       0.66667   0.90933   0.66667
O          O       0.33333   0.24267   0.33333
O          O       1.00000   0.00000   0.42400
O          O       0.66667   0.33333   0.09067
O          O       0.33333   0.66667   0.75733
O          O       0.00000   0.57600   0.57600
O          O       0.66667   0.90933   0.24267
O          O       0.33333   0.24267   0.90933
O          O       0.00000   0.42400   1.00000
O          O       0.66667   0.75733   0.66667
O          O       0.33333   0.09067   0.33333
O          O       0.86180   0.44560   0.55450
O          O       0.52847   0.77893   0.22117
O          O       0.19513   0.11227   0.88783
O          O       0.86180   0.10890   0.55440
O          O       0.52847   0.44223   0.22107
O          O       0.19513   0.77557   0.88773
O          O       0.86180   0.44550   0.89110
O          O       0.52847   0.77883   0.55777
O          O       0.19513   0.11217   0.22443
O          O       0.13820   0.55440   0.44550
O          O       0.80487   0.88773   0.11217
O          O       0.47153   0.22107   0.77883
O          O       0.13820   0.89110   0.44560
O          O       0.80487   0.22443   0.11227
O          O       0.47153   0.55777   0.77893
O          O       0.13820   0.55450   0.10890
O          O       0.80487   0.88783   0.77557
O          O       0.47153   0.22117   0.44223
O          O       0.66667   0.33333   0.43393
O          O       0.33333   0.66667   0.10060
O          O       1.00000   0.00000   0.76727
O          O       0.66667   0.10060   0.66667
O          O       0.33333   0.43393   0.33333
O          O       0.00000   0.76727   1.00000
O          O       0.66667   0.56607   0.89940
O          O       0.33333   0.89940   0.56607
O          O       0.00000   0.23273   0.23273
O          O       0.66667   0.10060   0.43393
O          O       0.33333   0.43393   0.10060
O          O       0.00000   0.76727   0.76727
O          O       0.66667   0.56607   0.66667
O          O       0.33333   0.89940   0.33333
O          O       0.00000   0.23273   1.00000
O          O       0.66667   0.33333   0.89940
O          O       0.33333   0.66667   0.56607
O          O       0.00000   0.00000   0.23273
