data_crystal

_cell_length_a    5.25700
_cell_length_b    12.64081
_cell_length_c    12.64081
_cell_angle_alpha 117.24229
_cell_angle_beta  90.00000
_cell_angle_gamma 90.00000

_space_group_name_Hall 'P 1'
_space_group_name_H-M_alt 'P 1'

loop_
_symmetry_equiv_pos_as_xyz
 'x,y,z'

loop_
_atom_site_label
_atom_site_type_symbol
_atom_site_fract_x
_atom_site_fract_y
_atom_site_fract_z
O          O       0.25000   0.21020   0.41260
O          O       0.25000   0.58740   0.78980
O          O       0.75000   0.41260   0.21020
O          O       0.75000   0.78980   0.58740
O          O       0.50000   0.35890   0.35890
O          O       0.50000   0.64110   0.64110
O          O       0.00000   0.35890   0.35890
O          O       1.00000   0.64110   0.64110
O          O       0.25000   0.43880   0.56120
O          O       0.75000   0.56120   0.43880
O          O       1.00000   0.43400   0.83700
O          O       0.00000   0.16300   0.56600
O          O       0.50000   0.83700   0.43400
O          O       0.50000   0.56600   0.16300
O          O       0.00000   0.56600   0.16300
O          O       1.00000   0.83700   0.43400
O          O       0.50000   0.16300   0.56600
O          O       0.50000   0.43400   0.83700
O          O       0.25000   0.60990   0.00710
O          O       0.25000   0.99290   0.39010
O          O       0.75000   0.00710   0.60990
O          O       0.75000   0.39010   0.99290
O          O       0.75000   0.23320   0.76680
O          O       0.25000   0.76680   0.23320
Si         Si      0.25000   0.34210   0.42310
Si         Si      0.25000   0.57690   0.65790
Si         Si      0.75000   0.42310   0.34210
Si         Si      0.75000   0.65790   0.57690
Si         Si      0.25000   0.51630   0.86790
Si         Si      0.25000   0.13210   0.48370
Si         Si      0.75000   0.86790   0.51630
Si         Si      0.75000   0.48370   0.13210
Si         Si      0.75000   0.14130   0.62690
Si         Si      0.75000   0.37310   0.85870
Si         Si      0.25000   0.62690   0.14130
Si         Si      0.25000   0.85870   0.37310
