data_crystal

_cell_length_a    7.51400
_cell_length_b    9.36900
_cell_length_c    9.98000
_cell_angle_alpha 90.00000
_cell_angle_beta  90.00000
_cell_angle_gamma 90.00000

_space_group_name_Hall 'P 1'
_space_group_name_H-M_alt 'P 1'

loop_
_symmetry_equiv_pos_as_xyz
 'x,y,z'

loop_
_atom_site_label
_atom_site_type_symbol
_atom_site_fract_x
_atom_site_fract_y
_atom_site_fract_z
Si         Si      0.20570   0.37150   0.09570
Si         Si      0.20570   0.37150   0.40430
Si         Si      0.79430   0.37150   0.09570
Si         Si      0.79430   0.37150   0.40430
Si         Si      0.79430   0.62850   0.90430
Si         Si      0.79430   0.62850   0.59570
Si         Si      0.20570   0.62850   0.90430
Si         Si      0.20570   0.62850   0.59570
Si         Si      0.50000   0.13800   0.09570
Si         Si      0.50000   0.13800   0.40430
Si         Si      0.50000   0.86200   0.90430
Si         Si      0.50000   0.86200   0.59570
O          O       0.32510   0.23220   0.06650
O          O       0.32510   0.23220   0.43350
O          O       0.67490   0.23220   0.06650
O          O       0.67490   0.23220   0.43350
O          O       0.67490   0.76780   0.93350
O          O       0.67490   0.76780   0.56650
O          O       0.32510   0.76780   0.93350
O          O       0.32510   0.76780   0.56650
O          O       0.22810   0.41800   0.25000
O          O       0.77190   0.41800   0.25000
O          O       0.77190   0.58200   0.75000
O          O       0.22810   0.58200   0.75000
O          O       0.00000   0.33550   0.06580
O          O       0.00000   0.33550   0.43420
O          O       0.00000   0.66450   0.93420
O          O       0.00000   0.66450   0.56580
O          O       0.26960   0.50000   0.00000
O          O       0.26960   0.50000   0.50000
O          O       0.73040   0.50000   0.00000
O          O       0.73040   0.50000   0.50000
O          O       0.50000   0.00000   0.00000
O          O       0.50000   0.00000   0.50000
O          O       0.50000   0.08790   0.25000
O          O       0.50000   0.91210   0.75000
