data_crystal

_cell_length_a    8.57900
_cell_length_b    8.77533
_cell_length_c    9.66100
_cell_angle_alpha 90.00000
_cell_angle_beta  90.00000
_cell_angle_gamma 119.26261

_space_group_name_Hall 'P 1'
_space_group_name_H-M_alt 'P 1'

loop_
_symmetry_equiv_pos_as_xyz
 'x,y,z'

loop_
_atom_site_label
_atom_site_type_symbol
_atom_site_fract_x
_atom_site_fract_y
_atom_site_fract_z
O          O       0.37510   0.25020   0.50000
O          O       0.87510   0.25020   0.50000
O          O       0.62490   0.74980   0.50000
O          O       0.12490   0.74980   0.50000
O          O       0.41400   0.32840   0.23510
O          O       0.91440   0.32840   0.23510
O          O       0.58560   0.67160   0.23510
O          O       0.08600   0.67160   0.23510
O          O       0.58600   0.67160   0.76490
O          O       0.08560   0.67160   0.76490
O          O       0.41440   0.32840   0.76490
O          O       0.91400   0.32840   0.76490
O          O       0.25000   0.00000   0.31330
O          O       0.75000   0.00000   0.31330
O          O       0.75000   0.00000   0.68670
O          O       0.25000   0.00000   0.68670
O          O       0.09630   0.19260   0.34980
O          O       0.40370   0.80740   0.34980
O          O       0.90370   0.80740   0.65020
O          O       0.59630   0.19260   0.65020
O          O       0.75000   0.50000   0.15720
O          O       0.25000   0.50000   0.84280
O          O       0.50000   0.50000   0.00000
O          O       0.00000   0.50000   1.00000
Si         Si      0.28370   0.19260   0.34970
Si         Si      0.90890   0.19260   0.34970
Si         Si      0.59110   0.80740   0.34970
Si         Si      0.21630   0.80740   0.34970
Si         Si      0.71630   0.80740   0.65030
Si         Si      0.09110   0.80740   0.65030
Si         Si      0.40890   0.19260   0.65030
Si         Si      0.78370   0.19260   0.65030
Si         Si      0.56260   0.50000   0.15680
Si         Si      0.93740   0.50000   0.15680
Si         Si      0.43740   0.50000   0.84320
Si         Si      0.06260   0.50000   0.84320
