data_crystal

_cell_length_a    13.23810
_cell_length_b    13.23810
_cell_length_c    17.48200
_cell_angle_alpha 90.00000
_cell_angle_beta  90.00000
_cell_angle_gamma 120.00000

_space_group_name_Hall 'P 1'
_space_group_name_H-M_alt 'P 1'

loop_
_symmetry_equiv_pos_as_xyz
 'x,y,z'

loop_
_atom_site_label
_atom_site_type_symbol
_atom_site_fract_x
_atom_site_fract_y
_atom_site_fract_z
Si         Si      0.00020   0.23840   0.58730
Si         Si      0.23820   0.99980   0.58730
Si         Si      0.76160   0.76180   0.58730
Si         Si      0.76180   0.76160   0.41270
Si         Si      0.23840   0.00020   0.41270
Si         Si      0.99980   0.23820   0.41270
Si         Si      0.99980   0.76160   0.41270
Si         Si      0.76180   0.00020   0.41270
Si         Si      0.23840   0.23820   0.41270
Si         Si      0.23820   0.23840   0.58730
Si         Si      0.76160   0.99980   0.58730
Si         Si      0.00020   0.76180   0.58730
Si         Si      0.89870   0.33410   0.87510
Si         Si      0.43540   0.10130   0.87510
Si         Si      0.66590   0.56460   0.87510
Si         Si      0.56460   0.66590   0.12490
Si         Si      0.33410   0.89870   0.12490
Si         Si      0.10130   0.43540   0.12490
Si         Si      0.10130   0.66590   0.12490
Si         Si      0.56460   0.89870   0.12490
Si         Si      0.33410   0.43540   0.12490
Si         Si      0.43540   0.33410   0.87510
Si         Si      0.66590   0.10130   0.87510
Si         Si      0.89870   0.56460   0.87510
Si         Si      0.90430   0.33520   0.69890
Si         Si      0.43090   0.09570   0.69890
Si         Si      0.66480   0.56910   0.69890
Si         Si      0.56910   0.66480   0.30110
Si         Si      0.33520   0.90430   0.30110
Si         Si      0.09570   0.43090   0.30110
Si         Si      0.09570   0.66480   0.30110
Si         Si      0.56910   0.90430   0.30110
Si         Si      0.33520   0.43090   0.30110
Si         Si      0.43090   0.33520   0.69890
Si         Si      0.66480   0.09570   0.69890
Si         Si      0.90430   0.56910   0.69890
Si         Si      0.00000   0.23770   1.00000
Si         Si      0.23770   0.00000   0.00000
Si         Si      0.76230   0.76230   0.00000
Si         Si      0.00000   0.76230   1.00000
Si         Si      0.76230   0.00000   0.00000
Si         Si      0.23770   0.23770   0.00000
O          O       0.88450   0.11560   0.60410
O          O       0.23110   0.11550   0.60410
O          O       0.88440   0.76890   0.60410
O          O       0.76890   0.88440   0.39590
O          O       0.11560   0.88450   0.39590
O          O       0.11550   0.23110   0.39590
O          O       0.00270   0.33440   0.64510
O          O       0.33170   0.99730   0.64510
O          O       0.66560   0.66830   0.64510
O          O       0.66830   0.66560   0.35490
O          O       0.33440   0.00270   0.35490
O          O       0.99730   0.33170   0.35490
O          O       0.99730   0.66560   0.35490
O          O       0.66830   0.00270   0.35490
O          O       0.33440   0.33170   0.35490
O          O       0.33170   0.33440   0.64510
O          O       0.66560   0.99730   0.64510
O          O       0.00270   0.66830   0.64510
O          O       0.11230   0.22460   0.60330
O          O       0.11230   0.88770   0.60330
O          O       0.77540   0.88770   0.60330
O          O       0.88770   0.77540   0.39670
O          O       0.22460   0.11230   0.39670
O          O       0.88770   0.11230   0.39670
O          O       0.00000   0.27670   0.50000
O          O       0.27670   1.00000   0.50000
O          O       0.72330   0.72330   0.50000
O          O       0.00000   0.72330   0.50000
O          O       0.72330   0.00000   0.50000
O          O       0.27670   0.27670   0.50000
O          O       0.76260   0.23740   0.88170
O          O       0.47480   0.23740   0.88170
O          O       0.76260   0.52520   0.88170
O          O       0.52520   0.76260   0.11830
O          O       0.23740   0.76260   0.11830
O          O       0.23740   0.47480   0.11830
O          O       0.97420   0.29570   0.92710
O          O       0.32150   0.02580   0.92710
O          O       0.70430   0.67850   0.92710
O          O       0.67850   0.70430   0.07290
O          O       0.29570   0.97420   0.07290
O          O       0.02580   0.32150   0.07290
O          O       0.02580   0.70430   0.07290
O          O       0.67850   0.97420   0.07290
O          O       0.29570   0.32150   0.07290
O          O       0.32150   0.29570   0.92710
O          O       0.70430   0.02580   0.92710
O          O       0.97420   0.67850   0.92710
O          O       0.91780   0.45890   0.90200
O          O       0.54110   0.08220   0.90200
O          O       0.54110   0.45890   0.90200
O          O       0.45890   0.54110   0.09800
O          O       0.45890   0.91780   0.09800
O          O       0.08220   0.54110   0.09800
O          O       0.94020   0.34350   0.78750
O          O       0.40330   0.05980   0.78750
O          O       0.65650   0.59670   0.78750
O          O       0.59670   0.65650   0.21250
O          O       0.34350   0.94020   0.21250
O          O       0.05980   0.40330   0.21250
O          O       0.05980   0.65650   0.21250
O          O       0.59670   0.94020   0.21250
O          O       0.34350   0.40330   0.21250
O          O       0.40330   0.34350   0.78750
O          O       0.65650   0.05980   0.78750
O          O       0.94020   0.59670   0.78750
O          O       0.78270   0.21730   0.68370
O          O       0.43460   0.21730   0.68370
O          O       0.78270   0.56540   0.68370
O          O       0.56540   0.78270   0.31630
O          O       0.21730   0.78270   0.31630
O          O       0.21730   0.43460   0.31630
O          O       0.88970   0.44480   0.67590
O          O       0.55510   0.11030   0.67590
O          O       0.55520   0.44490   0.67590
O          O       0.44490   0.55520   0.32410
O          O       0.44480   0.88970   0.32410
O          O       0.11030   0.55510   0.32410
O          O       0.11170   0.22340   0.98300
O          O       0.11170   0.88830   0.98300
O          O       0.77660   0.88830   0.98300
O          O       0.88830   0.77660   0.01700
O          O       0.22340   0.11170   0.01700
O          O       0.88830   0.11170   0.01700
