data_crystal

_cell_length_a    8.78748
_cell_length_b    8.78748
_cell_length_c    19.24100
_cell_angle_alpha 90.00000
_cell_angle_beta  90.00000
_cell_angle_gamma 117.62521

_space_group_name_Hall 'P 1'
_space_group_name_H-M_alt 'P 1'

loop_
_symmetry_equiv_pos_as_xyz
 'x,y,z'

loop_
_atom_site_label
_atom_site_type_symbol
_atom_site_fract_x
_atom_site_fract_y
_atom_site_fract_z
O          O       0.86020   0.63980   0.75000
O          O       0.36020   0.13980   0.75000
O          O       0.13980   0.36020   0.25000
O          O       0.63980   0.86020   0.25000
O          O       0.13930   0.86070   0.68510
O          O       0.36070   0.63930   0.18510
O          O       0.86070   0.13930   0.31490
O          O       0.63930   0.36070   0.81490
O          O       0.01660   0.52860   0.66320
O          O       0.47140   0.98340   0.66320
O          O       0.02860   0.51660   0.16320
O          O       0.48340   0.97140   0.16320
O          O       0.98340   0.47140   0.33680
O          O       0.52860   0.01660   0.33680
O          O       0.97140   0.48340   0.83680
O          O       0.51660   0.02860   0.83680
O          O       0.85050   0.68970   0.61580
O          O       0.31030   0.14950   0.61580
O          O       0.18970   0.35050   0.11580
O          O       0.64950   0.81030   0.11580
O          O       0.14950   0.31030   0.38420
O          O       0.68970   0.85050   0.38420
O          O       0.81030   0.64950   0.88420
O          O       0.35050   0.18970   0.88420
O          O       0.68950   0.87210   0.88420
O          O       0.12790   0.31050   0.88420
O          O       0.37210   0.18950   0.38420
O          O       0.81050   0.62790   0.38420
O          O       0.31050   0.12790   0.11580
O          O       0.87210   0.68950   0.11580
O          O       0.62790   0.81050   0.61580
O          O       0.18950   0.37210   0.61580
O          O       0.80430   0.80430   0.00000
O          O       0.19570   0.19570   0.00000
O          O       0.30430   0.30430   0.50000
O          O       0.69570   0.69570   0.50000
O          O       0.02110   0.97890   0.90070
O          O       0.47890   0.52110   0.40070
O          O       0.97890   0.02110   0.09930
O          O       0.52110   0.47890   0.59930
O          O       0.62890   0.87110   0.75000
O          O       0.12890   0.37110   0.75000
O          O       0.37110   0.12890   0.25000
O          O       0.87110   0.62890   0.25000
O          O       0.34540   0.65460   0.68920
O          O       0.15460   0.84540   0.18920
O          O       0.65460   0.34540   0.31080
O          O       0.84540   0.15460   0.81080
Si         Si      0.96730   0.68070   0.67850
Si         Si      0.31930   0.03270   0.67850
Si         Si      0.18070   0.46730   0.17850
Si         Si      0.53270   0.81930   0.17850
Si         Si      0.03270   0.31930   0.32150
Si         Si      0.68070   0.96730   0.32150
Si         Si      0.81930   0.53270   0.82150
Si         Si      0.46730   0.18070   0.82150
Si         Si      0.83210   0.82670   0.91730
Si         Si      0.17330   0.16790   0.91730
Si         Si      0.32670   0.33210   0.41730
Si         Si      0.66790   0.67330   0.41730
Si         Si      0.16790   0.17330   0.08270
Si         Si      0.82670   0.83210   0.08270
Si         Si      0.67330   0.66790   0.58270
Si         Si      0.33210   0.32670   0.58270
Si         Si      0.51940   0.83100   0.67920
Si         Si      0.16900   0.48060   0.67920
Si         Si      0.33100   0.01940   0.17920
Si         Si      0.98060   0.66900   0.17920
Si         Si      0.48060   0.16900   0.32080
Si         Si      0.83100   0.51940   0.32080
Si         Si      0.66900   0.98060   0.82080
Si         Si      0.01940   0.33100   0.82080
