data_crystal

_cell_length_a    7.62700
_cell_length_b    13.63400
_cell_length_c    13.63400
_cell_angle_alpha 90.00000
_cell_angle_beta  90.00000
_cell_angle_gamma 90.00000

_space_group_name_Hall 'P 1'
_space_group_name_H-M_alt 'P 1'

loop_
_symmetry_equiv_pos_as_xyz
 'x,y,z'

loop_
_atom_site_label
_atom_site_type_symbol
_atom_site_fract_x
_atom_site_fract_y
_atom_site_fract_z
Si         Si      0.85600   0.47420   0.86480
Si         Si      0.85600   0.63520   0.47420
Si         Si      0.85600   0.02580   0.63520
Si         Si      0.85600   0.86480   0.02580
Si         Si      0.85600   0.02580   0.86480
Si         Si      0.85600   0.86480   0.47420
Si         Si      0.85600   0.47420   0.63520
Si         Si      0.85600   0.63520   0.02580
Si         Si      0.14400   0.52580   0.13520
Si         Si      0.14400   0.36480   0.52580
Si         Si      0.14400   0.97420   0.36480
Si         Si      0.14400   0.13520   0.97420
Si         Si      0.14400   0.97420   0.13520
Si         Si      0.14400   0.13520   0.52580
Si         Si      0.14400   0.52580   0.36480
Si         Si      0.14400   0.36480   0.97420
Si         Si      0.50000   0.13730   0.86270
Si         Si      0.50000   0.63730   0.13730
Si         Si      0.50000   0.36270   0.63730
Si         Si      0.50000   0.86270   0.36270
Si         Si      0.50000   0.36270   0.86270
Si         Si      0.50000   0.86270   0.13730
Si         Si      0.50000   0.13730   0.63730
Si         Si      0.50000   0.63730   0.36270
O          O       0.86990   0.50040   0.75000
O          O       0.86990   0.75000   0.50040
O          O       0.86990   0.99960   0.75000
O          O       0.86990   0.75000   0.99960
O          O       0.13010   0.49960   0.25000
O          O       0.13010   0.25000   0.49960
O          O       0.13010   0.00040   0.25000
O          O       0.13010   0.25000   0.00040
O          O       0.66300   0.43300   0.88890
O          O       0.66300   0.61110   0.43300
O          O       0.66300   0.06700   0.61110
O          O       0.66300   0.88890   0.06700
O          O       0.66300   0.06700   0.88890
O          O       0.66300   0.88890   0.43300
O          O       0.66300   0.43300   0.61110
O          O       0.66300   0.61110   0.06700
O          O       0.33700   0.56700   0.11110
O          O       0.33700   0.38890   0.56700
O          O       0.33700   0.93300   0.38890
O          O       0.33700   0.11110   0.93300
O          O       0.33700   0.93300   0.11110
O          O       0.33700   0.11110   0.56700
O          O       0.33700   0.56700   0.38890
O          O       0.33700   0.38890   0.93300
O          O       1.00000   0.39220   0.89220
O          O       0.00000   0.60780   0.39220
O          O       1.00000   0.10780   0.60780
O          O       0.00000   0.89220   0.10780
O          O       1.00000   0.10780   0.89220
O          O       0.00000   0.89220   0.39220
O          O       1.00000   0.39220   0.60780
O          O       0.00000   0.60780   0.10780
O          O       0.89210   0.57160   0.92840
O          O       0.89210   0.57160   0.57160
O          O       0.89210   0.92840   0.57160
O          O       0.89210   0.92840   0.92840
O          O       0.10790   0.42840   0.07160
O          O       0.10790   0.42840   0.42840
O          O       0.10790   0.07160   0.42840
O          O       0.10790   0.07160   0.07160
O          O       0.44420   0.12100   0.75000
O          O       0.44420   0.75000   0.12100
O          O       0.44420   0.37900   0.75000
O          O       0.44420   0.75000   0.37900
O          O       0.55580   0.87900   0.25000
O          O       0.55580   0.25000   0.87900
O          O       0.55580   0.62100   0.25000
O          O       0.55580   0.25000   0.62100
