data_crystal

_cell_length_a    5.25500
_cell_length_b    6.85368
_cell_length_c    6.85368
_cell_angle_alpha 81.54844
_cell_angle_beta  67.45737
_cell_angle_gamma 67.45737

_space_group_name_Hall 'P 1'
_space_group_name_H-M_alt 'P 1'

loop_
_symmetry_equiv_pos_as_xyz
 'x,y,z'

loop_
_atom_site_label
_atom_site_type_symbol
_atom_site_fract_x
_atom_site_fract_y
_atom_site_fract_z
O          O       0.00000   0.50000   0.00000
O          O       0.50000   1.00000   0.50000
O          O       0.50000   0.50000   0.00000
O          O       0.00000   1.00000   0.50000
O          O       1.00000   0.79210   0.20790
O          O       0.79210   0.20790   0.20790
O          O       1.00000   0.20790   0.79210
O          O       0.20790   0.79210   0.79210
Si         Si      0.17690   0.64620   0.00000
Si         Si      0.82310   0.00000   0.35380
Si         Si      0.82310   0.35380   0.00000
Si         Si      0.17690   0.00000   0.64620
