data_crystal

_cell_length_a    12.77000
_cell_length_b    12.77000
_cell_length_c    12.97700
_cell_angle_alpha 90.00000
_cell_angle_beta  90.00000
_cell_angle_gamma 90.00000

_space_group_name_Hall 'P 1'
_space_group_name_H-M_alt 'P 1'

loop_
_symmetry_equiv_pos_as_xyz
 'x,y,z'

loop_
_atom_site_label
_atom_site_type_symbol
_atom_site_fract_x
_atom_site_fract_y
_atom_site_fract_z
Si         Si      0.87700   0.61800   0.61680
Si         Si      0.38200   0.87700   0.11680
Si         Si      0.12300   0.38200   0.61680
Si         Si      0.61800   0.12300   0.11680
Si         Si      0.12300   0.61800   0.61680
Si         Si      0.61800   0.87700   0.11680
Si         Si      0.87700   0.38200   0.61680
Si         Si      0.38200   0.12300   0.11680
Si         Si      0.12300   0.38200   0.38320
Si         Si      0.61800   0.12300   0.88320
Si         Si      0.87700   0.61800   0.38320
Si         Si      0.38200   0.87700   0.88320
Si         Si      0.87700   0.38200   0.38320
Si         Si      0.38200   0.12300   0.88320
Si         Si      0.12300   0.61800   0.38320
Si         Si      0.61800   0.87700   0.88320
Si         Si      0.80700   0.80700   0.25000
Si         Si      0.19300   0.80700   0.75000
Si         Si      0.19300   0.19300   0.25000
Si         Si      0.80700   0.19300   0.75000
Si         Si      0.19300   0.80700   0.25000
Si         Si      0.80700   0.80700   0.75000
Si         Si      0.80700   0.19300   0.25000
Si         Si      0.19300   0.19300   0.75000
Si         Si      0.00000   0.11920   0.12380
Si         Si      0.88080   0.00000   0.62380
Si         Si      0.00000   0.88080   0.12380
Si         Si      0.11920   0.00000   0.62380
Si         Si      0.00000   0.88080   0.87620
Si         Si      0.11920   0.00000   0.37620
Si         Si      0.00000   0.11920   0.87620
Si         Si      0.88080   0.00000   0.37620
O          O       0.00000   0.61990   0.35640
O          O       0.38010   0.00000   0.85640
O          O       0.00000   0.38010   0.35640
O          O       0.61990   0.00000   0.85640
O          O       0.00000   0.38010   0.64360
O          O       0.61990   0.00000   0.14360
O          O       0.00000   0.61990   0.64360
O          O       0.38010   0.00000   0.14360
O          O       0.85930   0.65670   0.50000
O          O       0.34330   0.85930   0.00000
O          O       0.14070   0.34330   0.50000
O          O       0.65670   0.14070   0.00000
O          O       0.14070   0.65670   0.50000
O          O       0.65670   0.85930   0.00000
O          O       0.85930   0.34330   0.50000
O          O       0.34330   0.14070   0.00000
O          O       0.83390   0.50000   0.37100
O          O       0.50000   0.83390   0.87100
O          O       0.16610   0.50000   0.37100
O          O       0.50000   0.16610   0.87100
O          O       0.16610   0.50000   0.62900
O          O       0.50000   0.16610   0.12900
O          O       0.83390   0.50000   0.62900
O          O       0.50000   0.83390   0.12900
O          O       0.81630   0.69420   0.69540
O          O       0.30580   0.81630   0.19540
O          O       0.18370   0.30580   0.69540
O          O       0.69420   0.18370   0.19540
O          O       0.18370   0.69420   0.69540
O          O       0.69420   0.81630   0.19540
O          O       0.81630   0.30580   0.69540
O          O       0.30580   0.18370   0.19540
O          O       0.18370   0.30580   0.30460
O          O       0.69420   0.18370   0.80460
O          O       0.81630   0.69420   0.30460
O          O       0.30580   0.81630   0.80460
O          O       0.81630   0.30580   0.30460
O          O       0.30580   0.18370   0.80460
O          O       0.18370   0.69420   0.30460
O          O       0.69420   0.81630   0.80460
O          O       0.00000   0.88040   0.00000
O          O       0.11960   0.00000   0.50000
O          O       0.00000   0.11960   0.00000
O          O       0.88040   0.00000   0.50000
O          O       0.00000   0.00000   0.16450
O          O       0.00000   0.00000   0.66450
O          O       0.00000   0.00000   0.83550
O          O       0.00000   0.00000   0.33550
O          O       0.89730   0.17970   0.16440
O          O       0.82030   0.89730   0.66440
O          O       0.10270   0.82030   0.16440
O          O       0.17970   0.10270   0.66440
O          O       0.10270   0.17970   0.16440
O          O       0.17970   0.89730   0.66440
O          O       0.89730   0.82030   0.16440
O          O       0.82030   0.10270   0.66440
O          O       0.10270   0.82030   0.83560
O          O       0.17970   0.10270   0.33560
O          O       0.89730   0.17970   0.83560
O          O       0.82030   0.89730   0.33560
O          O       0.89730   0.82030   0.83560
O          O       0.82030   0.10270   0.33560
O          O       0.10270   0.17970   0.83560
O          O       0.17970   0.89730   0.33560
