data_crystal

_cell_length_a    5.25600
_cell_length_b    7.54000
_cell_length_c    8.94434
_cell_angle_alpha 114.92905
_cell_angle_beta  90.00000
_cell_angle_gamma 90.00000

_space_group_name_Hall 'P 1'
_space_group_name_H-M_alt 'P 1'

loop_
_symmetry_equiv_pos_as_xyz
 'x,y,z'

loop_
_atom_site_label
_atom_site_type_symbol
_atom_site_fract_x
_atom_site_fract_y
_atom_site_fract_z
O          O       0.50000   0.50000   0.50000
O          O       0.50000   0.00000   0.50000
O          O       0.00000   0.00000   0.50000
O          O       1.00000   0.50000   0.50000
O          O       0.25000   0.43990   0.22860
O          O       0.25000   0.78870   0.22860
O          O       0.75000   0.21130   0.77140
O          O       0.75000   0.56010   0.77140
O          O       0.25000   0.17140   0.34280
O          O       0.75000   0.82860   0.65720
O          O       1.00000   0.50000   0.00000
O          O       0.50000   0.50000   0.00000
Si         Si      0.25000   0.40310   0.39320
Si         Si      0.25000   0.99010   0.39320
Si         Si      0.75000   0.00990   0.60680
Si         Si      0.75000   0.59690   0.60680
Si         Si      0.25000   0.55710   0.11420
Si         Si      0.75000   0.44290   0.88580
