data_crystal

_cell_length_a    7.50300
_cell_length_b    12.77300
_cell_length_c    13.70600
_cell_angle_alpha 90.00000
_cell_angle_beta  90.00000
_cell_angle_gamma 90.00000

_space_group_name_Hall 'P 1'
_space_group_name_H-M_alt 'P 1'

loop_
_symmetry_equiv_pos_as_xyz
 'x,y,z'

loop_
_atom_site_label
_atom_site_type_symbol
_atom_site_fract_x
_atom_site_fract_y
_atom_site_fract_z
Si         Si      0.04680   0.62960   0.66940
Si         Si      0.45320   0.37040   0.16940
Si         Si      0.95320   0.12960   0.33060
Si         Si      0.54680   0.87040   0.83060
Si         Si      0.95320   0.37040   0.33060
Si         Si      0.54680   0.62960   0.83060
Si         Si      0.04680   0.87040   0.66940
Si         Si      0.45320   0.12960   0.16940
Si         Si      0.65640   0.56050   0.62660
Si         Si      0.84360   0.43950   0.12660
Si         Si      0.34360   0.06050   0.37340
Si         Si      0.15640   0.93950   0.87340
Si         Si      0.34360   0.43950   0.37340
Si         Si      0.15640   0.56050   0.87340
Si         Si      0.65640   0.93950   0.62660
Si         Si      0.84360   0.06050   0.12660
Si         Si      0.32790   0.63010   0.50750
Si         Si      0.17210   0.36990   0.00750
Si         Si      0.67210   0.13010   0.49250
Si         Si      0.82790   0.86990   0.99250
Si         Si      0.67210   0.36990   0.49250
Si         Si      0.82790   0.63010   0.99250
Si         Si      0.32790   0.86990   0.50750
Si         Si      0.17210   0.13010   0.00750
O          O       0.52470   0.62180   0.55360
O          O       0.97530   0.37820   0.05360
O          O       0.47530   0.12180   0.44640
O          O       0.02470   0.87820   0.94640
O          O       0.47530   0.37820   0.44640
O          O       0.02470   0.62180   0.94640
O          O       0.52470   0.87820   0.55360
O          O       0.97530   0.12180   0.05360
O          O       0.07100   0.55870   0.76560
O          O       0.42900   0.44130   0.26560
O          O       0.92900   0.05870   0.23440
O          O       0.57100   0.94130   0.73440
O          O       0.92900   0.44130   0.23440
O          O       0.57100   0.55870   0.73440
O          O       0.07100   0.94130   0.76560
O          O       0.42900   0.05870   0.26560
O          O       0.84570   0.61970   0.62960
O          O       0.65430   0.38030   0.12960
O          O       0.15430   0.11970   0.37040
O          O       0.34570   0.88030   0.87040
O          O       0.15430   0.38030   0.37040
O          O       0.34570   0.61970   0.87040
O          O       0.84570   0.88030   0.62960
O          O       0.65430   0.11970   0.12960
O          O       0.18360   0.59100   0.58640
O          O       0.31640   0.40900   0.08640
O          O       0.81640   0.09100   0.41360
O          O       0.68360   0.90900   0.91360
O          O       0.81640   0.40900   0.41360
O          O       0.68360   0.59100   0.91360
O          O       0.18360   0.90900   0.58640
O          O       0.31640   0.09100   0.08640
O          O       0.31600   0.55760   0.41160
O          O       0.18400   0.44240   0.91160
O          O       0.68400   0.05760   0.58840
O          O       0.81600   0.94240   0.08840
O          O       0.68400   0.44240   0.58840
O          O       0.81600   0.55760   0.08840
O          O       0.31600   0.94240   0.41160
O          O       0.18400   0.05760   0.91160
O          O       0.08800   0.75000   0.69620
O          O       0.41200   0.25000   0.19620
O          O       0.91200   0.25000   0.30380
O          O       0.58800   0.75000   0.80380
O          O       0.28750   0.75000   0.47860
O          O       0.21250   0.25000   0.97860
O          O       0.71250   0.25000   0.52140
O          O       0.78750   0.75000   0.02140
