data_crystal

_cell_length_a    12.66900
_cell_length_b    16.71137
_cell_length_c    16.71137
_cell_angle_alpha 73.56996
_cell_angle_beta  67.72495
_cell_angle_gamma 67.72495

_space_group_name_Hall 'P 1'
_space_group_name_H-M_alt 'P 1'

loop_
_symmetry_equiv_pos_as_xyz
 'x,y,z'

loop_
_atom_site_label
_atom_site_type_symbol
_atom_site_fract_x
_atom_site_fract_y
_atom_site_fract_z
O          O       0.41810   0.34510   0.94470
O          O       0.41810   0.94470   0.34510
O          O       0.20790   0.55530   0.15490
O          O       0.20790   0.15490   0.55530
O          O       0.58190   0.65490   0.05530
O          O       0.58190   0.05530   0.65490
O          O       0.79210   0.44470   0.84510
O          O       0.79210   0.84510   0.44470
O          O       0.54170   0.29710   0.05530
O          O       0.54170   0.05530   0.29710
O          O       0.39410   0.44470   0.20290
O          O       0.39410   0.20290   0.44470
O          O       0.45830   0.70290   0.94470
O          O       0.45830   0.94470   0.70290
O          O       0.60590   0.55530   0.79710
O          O       0.60590   0.79710   0.55530
O          O       0.38220   0.45330   0.04670
O          O       0.38220   0.04670   0.45330
O          O       0.61780   0.54670   0.95330
O          O       0.61780   0.95330   0.54670
O          O       0.58290   0.41710   0.91710
O          O       0.58290   0.91710   0.41710
O          O       0.41710   0.58290   0.08290
O          O       0.41710   0.08290   0.58290
O          O       0.77110   0.24790   0.04030
O          O       0.77110   0.04030   0.24790
O          O       0.55930   0.45970   0.25210
O          O       0.55930   0.25210   0.45970
O          O       0.22890   0.75210   0.95970
O          O       0.22890   0.95970   0.75210
O          O       0.44070   0.54030   0.74790
O          O       0.44070   0.74790   0.54030
O          O       0.62790   0.16960   0.16960
O          O       0.46710   0.33040   0.33040
O          O       0.37210   0.83040   0.83040
O          O       0.53290   0.66960   0.66960
O          O       0.61070   0.33170   0.16830
O          O       0.61070   0.16830   0.33170
O          O       0.38930   0.66830   0.83170
O          O       0.38930   0.83170   0.66830
O          O       0.33830   0.27950   0.86150
O          O       0.33830   0.86150   0.27950
O          O       0.97930   0.63850   0.22050
O          O       0.97930   0.22050   0.63850
O          O       0.66170   0.72050   0.13850
O          O       0.66170   0.13850   0.72050
O          O       0.02070   0.36150   0.77950
O          O       0.02070   0.77950   0.36150
O          O       0.43710   0.13910   0.78670
O          O       0.43710   0.78670   0.13910
O          O       0.86290   0.71330   0.36090
O          O       0.86290   0.36090   0.71330
O          O       0.56290   0.86090   0.21330
O          O       0.56290   0.21330   0.86090
O          O       0.13710   0.28670   0.63910
O          O       0.13710   0.63910   0.28670
O          O       0.23110   0.15830   0.91250
O          O       0.23110   0.91250   0.15830
O          O       0.80190   0.58750   0.34170
O          O       0.80190   0.34170   0.58750
O          O       0.76890   0.84170   0.08750
O          O       0.76890   0.08750   0.84170
O          O       0.19810   0.41250   0.65830
O          O       0.19810   0.65830   0.41250
O          O       0.24240   0.25760   0.75760
O          O       0.24240   0.75760   0.25760
O          O       0.75760   0.74240   0.24240
O          O       0.75760   0.24240   0.74240
O          O       0.00170   0.17310   0.97090
O          O       0.00170   0.97090   0.17310
O          O       0.64570   0.52910   0.32690
O          O       0.64570   0.32690   0.52910
O          O       0.99830   0.82690   0.02910
O          O       0.99830   0.02910   0.82690
O          O       0.35430   0.47090   0.67310
O          O       0.35430   0.67310   0.47090
O          O       0.15580   0.04680   0.88180
O          O       0.15580   0.88180   0.04680
O          O       0.58440   0.61820   0.45320
O          O       0.58440   0.45320   0.61820
O          O       0.84420   0.95320   0.11820
O          O       0.84420   0.11820   0.95320
O          O       0.41560   0.38180   0.54680
O          O       0.41560   0.54680   0.38180
O          O       0.15200   0.04150   0.04150
O          O       0.73500   0.45850   0.45850
O          O       0.84800   0.95850   0.95850
O          O       0.26500   0.54150   0.54150
O          O       0.48970   0.36940   0.77220
O          O       0.48970   0.77220   0.36940
O          O       0.13130   0.72780   0.13060
O          O       0.13130   0.13060   0.72780
O          O       0.51030   0.63060   0.22780
O          O       0.51030   0.22780   0.63060
O          O       0.86870   0.27220   0.86940
O          O       0.86870   0.86940   0.27220
Si         Si      0.48100   0.37820   0.99120
Si         Si      0.48100   0.99120   0.37820
Si         Si      0.35040   0.50880   0.12180
Si         Si      0.35040   0.12180   0.50880
Si         Si      0.51900   0.62180   0.00880
Si         Si      0.51900   0.00880   0.62180
Si         Si      0.64960   0.49120   0.87820
Si         Si      0.64960   0.87820   0.49120
Si         Si      0.63800   0.26160   0.10820
Si         Si      0.63800   0.10820   0.26160
Si         Si      0.50780   0.39180   0.23840
Si         Si      0.50780   0.23840   0.39180
Si         Si      0.36200   0.73840   0.89180
Si         Si      0.36200   0.89180   0.73840
Si         Si      0.49220   0.60820   0.76160
Si         Si      0.49220   0.76160   0.60820
Si         Si      0.31160   0.20880   0.82960
Si         Si      0.31160   0.82960   0.20880
Si         Si      0.85000   0.67040   0.29120
Si         Si      0.85000   0.29120   0.67040
Si         Si      0.68840   0.79120   0.17040
Si         Si      0.68840   0.17040   0.79120
Si         Si      0.15000   0.32960   0.70880
Si         Si      0.15000   0.70880   0.32960
Si         Si      0.13510   0.10490   0.95170
Si         Si      0.13510   0.95170   0.10490
Si         Si      0.69170   0.54830   0.39510
Si         Si      0.69170   0.39510   0.54830
Si         Si      0.86490   0.89510   0.04830
Si         Si      0.86490   0.04830   0.89510
Si         Si      0.30830   0.45170   0.60490
Si         Si      0.30830   0.60490   0.45170
Si         Si      0.45210   0.30190   0.85990
Si         Si      0.45210   0.85990   0.30190
Si         Si      0.11390   0.64010   0.19810
Si         Si      0.11390   0.19810   0.64010
Si         Si      0.54790   0.69810   0.14010
Si         Si      0.54790   0.14010   0.69810
Si         Si      0.88610   0.35990   0.80190
Si         Si      0.88610   0.80190   0.35990
Si         Si      0.87150   0.20280   0.95840
Si         Si      0.87150   0.95840   0.20280
Si         Si      0.53270   0.54160   0.29720
Si         Si      0.53270   0.29720   0.54160
Si         Si      0.12850   0.79720   0.04160
Si         Si      0.12850   0.04160   0.79720
Si         Si      0.46730   0.45840   0.70280
Si         Si      0.46730   0.70280   0.45840
