data_crystal

_cell_length_a    14.07700
_cell_length_b    14.14880
_cell_length_c    19.20458
_cell_angle_alpha 111.61515
_cell_angle_beta  90.00000
_cell_angle_gamma 90.00000

_space_group_name_Hall 'P 1'
_space_group_name_H-M_alt 'P 1'

loop_
_symmetry_equiv_pos_as_xyz
 'x,y,z'

loop_
_atom_site_label
_atom_site_type_symbol
_atom_site_fract_x
_atom_site_fract_y
_atom_site_fract_z
O          O       0.15690   0.71980   0.43960
O          O       0.65690   0.28020   0.56040
O          O       0.34310   0.71980   0.43960
O          O       0.84310   0.28020   0.56040
O          O       0.25000   0.67970   0.54460
O          O       0.75000   0.32030   0.45540
O          O       0.25000   0.86490   0.54460
O          O       0.75000   0.13510   0.45540
O          O       0.25000   0.59370   0.74560
O          O       0.75000   0.40630   0.25440
O          O       0.25000   0.15190   0.74560
O          O       0.75000   0.84810   0.25440
O          O       0.08400   0.51400   0.69040
O          O       0.58400   0.48600   0.30960
O          O       0.41600   0.17640   0.69040
O          O       0.91600   0.82360   0.30960
O          O       0.91600   0.48600   0.30960
O          O       0.41600   0.51400   0.69040
O          O       0.58400   0.82360   0.30960
O          O       0.08400   0.17640   0.69040
O          O       0.09110   0.69430   0.79580
O          O       0.59110   0.30570   0.20420
O          O       0.40890   0.10150   0.79580
O          O       0.90890   0.89850   0.20420
O          O       0.90890   0.30570   0.20420
O          O       0.40890   0.69430   0.79580
O          O       0.59110   0.89850   0.20420
O          O       0.09110   0.10150   0.79580
O          O       0.15680   0.66890   0.66120
O          O       0.65680   0.33110   0.33880
O          O       0.34320   0.99230   0.66120
O          O       0.84320   0.00770   0.33880
O          O       0.84320   0.33110   0.33880
O          O       0.34320   0.66890   0.66120
O          O       0.65680   0.00770   0.33880
O          O       0.15680   0.99230   0.66120
O          O       0.25000   0.19090   0.09680
O          O       0.75000   0.80910   0.90320
O          O       0.25000   0.90590   0.09680
O          O       0.75000   0.09410   0.90320
O          O       0.08690   0.25580   0.16500
O          O       0.58690   0.74420   0.83500
O          O       0.41310   0.90920   0.16500
O          O       0.91310   0.09080   0.83500
O          O       0.91310   0.74420   0.83500
O          O       0.41310   0.25580   0.16500
O          O       0.58690   0.09080   0.83500
O          O       0.08690   0.90920   0.16500
O          O       0.08820   0.13510   0.02440
O          O       0.58820   0.86490   0.97560
O          O       0.41180   0.88930   0.02440
O          O       0.91180   0.11070   0.97560
O          O       0.91180   0.86490   0.97560
O          O       0.41180   0.13510   0.02440
O          O       0.58820   0.11070   0.97560
O          O       0.08820   0.88930   0.02440
O          O       0.13650   0.06440   0.12880
O          O       0.63650   0.93560   0.87120
O          O       0.36350   0.06440   0.12880
O          O       0.86350   0.93560   0.87120
O          O       0.25000   0.65710   0.31420
O          O       0.75000   0.34290   0.68580
O          O       0.08740   0.75430   0.32320
O          O       0.58740   0.24570   0.67680
O          O       0.41260   0.56890   0.32320
O          O       0.91260   0.43110   0.67680
O          O       0.91260   0.24570   0.67680
O          O       0.41260   0.75430   0.32320
O          O       0.58740   0.43110   0.67680
O          O       0.08740   0.56890   0.32320
O          O       0.25000   0.83500   0.67000
O          O       0.75000   0.16500   0.33000
O          O       0.97080   0.28900   0.07020
O          O       0.47080   0.71100   0.92980
O          O       0.52920   0.78120   0.07020
O          O       0.02920   0.21880   0.92980
O          O       0.02920   0.71100   0.92980
O          O       0.52920   0.28900   0.07020
O          O       0.47080   0.21880   0.92980
O          O       0.97080   0.78120   0.07020
O          O       0.02590   0.44210   0.19220
O          O       0.52590   0.55790   0.80780
O          O       0.47410   0.75010   0.19220
O          O       0.97410   0.24990   0.80780
O          O       0.97410   0.55790   0.80780
O          O       0.47410   0.44210   0.19220
O          O       0.52590   0.24990   0.80780
O          O       0.02590   0.75010   0.19220
O          O       0.04530   0.37320   0.74640
O          O       0.54530   0.62680   0.25360
O          O       0.45470   0.37320   0.74640
O          O       0.95470   0.62680   0.25360
Si         Si      0.14490   0.61750   0.72300
Si         Si      0.64490   0.38250   0.27700
Si         Si      0.35510   0.10550   0.72300
Si         Si      0.85510   0.89450   0.27700
Si         Si      0.85510   0.38250   0.27700
Si         Si      0.35510   0.61750   0.72300
Si         Si      0.64490   0.89450   0.27700
Si         Si      0.14490   0.10550   0.72300
Si         Si      0.14110   0.16100   0.10380
Si         Si      0.64110   0.83900   0.89620
Si         Si      0.35890   0.94280   0.10380
Si         Si      0.85890   0.05720   0.89620
Si         Si      0.85890   0.83900   0.89620
Si         Si      0.35890   0.16100   0.10380
Si         Si      0.64110   0.05720   0.89620
Si         Si      0.14110   0.94280   0.10380
Si         Si      0.99800   0.32330   0.15760
Si         Si      0.49800   0.67670   0.84240
Si         Si      0.50200   0.83430   0.15760
Si         Si      0.00200   0.16570   0.84240
Si         Si      0.00200   0.67670   0.84240
Si         Si      0.50200   0.32330   0.15760
Si         Si      0.49800   0.16570   0.84240
Si         Si      0.99800   0.83430   0.15760
Si         Si      0.00430   0.46940   0.73000
Si         Si      0.50430   0.53060   0.27000
Si         Si      0.49570   0.26060   0.73000
Si         Si      0.99570   0.73940   0.27000
Si         Si      0.99570   0.53060   0.27000
Si         Si      0.49570   0.46940   0.73000
Si         Si      0.50430   0.73940   0.27000
Si         Si      0.00430   0.26060   0.73000
Si         Si      0.25000   0.71240   0.63440
Si         Si      0.75000   0.28760   0.36560
Si         Si      0.25000   0.92200   0.63440
Si         Si      0.75000   0.07800   0.36560
Si         Si      0.14470   0.67490   0.34980
Si         Si      0.64470   0.32510   0.65020
Si         Si      0.35530   0.67490   0.34980
Si         Si      0.85530   0.32510   0.65020
Si         Si      0.00000   0.18860   0.00000
Si         Si      0.50000   0.81140   0.00000
Si         Si      1.00000   0.81140   0.00000
Si         Si      0.50000   0.18860   0.00000
Si         Si      0.25000   0.74610   0.49220
Si         Si      0.75000   0.25390   0.50780
