data_crystal

_cell_length_a    12.96900
_cell_length_b    13.05700
_cell_length_c    13.05700
_cell_angle_alpha 120.00000
_cell_angle_beta  90.00000
_cell_angle_gamma 90.00000

_space_group_name_Hall 'P 1'
_space_group_name_H-M_alt 'P 1'

loop_
_symmetry_equiv_pos_as_xyz
 'x,y,z'

loop_
_atom_site_label
_atom_site_type_symbol
_atom_site_fract_x
_atom_site_fract_y
_atom_site_fract_z
Si         Si      0.73410   0.50840   0.86410
Si         Si      0.73410   0.35570   0.49160
Si         Si      0.73410   0.13590   0.64430
Si         Si      0.26590   0.50840   0.86410
Si         Si      0.26590   0.35570   0.49160
Si         Si      0.26590   0.13590   0.64430
Si         Si      0.26590   0.64430   0.13590
Si         Si      0.26590   0.86410   0.50840
Si         Si      0.26590   0.49160   0.35570
Si         Si      0.73410   0.64430   0.13590
Si         Si      0.73410   0.86410   0.50840
Si         Si      0.73410   0.49160   0.35570
Si         Si      0.61830   0.43710   0.13380
Si         Si      0.61830   0.69670   0.56290
Si         Si      0.61830   0.86620   0.30330
Si         Si      0.38170   0.43710   0.13380
Si         Si      0.38170   0.69670   0.56290
Si         Si      0.38170   0.86620   0.30330
Si         Si      0.38170   0.30330   0.86620
Si         Si      0.38170   0.13380   0.43710
Si         Si      0.38170   0.56290   0.69670
Si         Si      0.61830   0.30330   0.86620
Si         Si      0.61830   0.13380   0.43710
Si         Si      0.61830   0.56290   0.69670
Si         Si      0.87610   0.66667   0.33333
Si         Si      0.12390   0.66667   0.33333
Si         Si      0.12390   0.33333   0.66667
Si         Si      0.87610   0.33333   0.66667
O          O       0.69270   0.58200   0.80360
O          O       0.69270   0.22160   0.41800
O          O       0.69270   0.19640   0.77840
O          O       0.30730   0.58200   0.80360
O          O       0.30730   0.22160   0.41800
O          O       0.30730   0.19640   0.77840
O          O       0.30730   0.77840   0.19640
O          O       0.30730   0.80360   0.58200
O          O       0.30730   0.41800   0.22160
O          O       0.69270   0.77840   0.19640
O          O       0.69270   0.80360   0.58200
O          O       0.69270   0.41800   0.22160
O          O       0.76360   0.59840   0.00000
O          O       0.76360   0.40160   0.40160
O          O       0.76360   1.00000   0.59840
O          O       0.23640   0.59840   0.00000
O          O       0.23640   0.40160   0.40160
O          O       0.23640   1.00000   0.59840
O          O       0.83450   0.43360   0.79410
O          O       0.83450   0.36050   0.56640
O          O       0.83450   0.20590   0.63950
O          O       0.16550   0.43360   0.79410
O          O       0.16550   0.36050   0.56640
O          O       0.16550   0.20590   0.63950
O          O       0.16550   0.63950   0.20590
O          O       0.16550   0.79410   0.43360
O          O       0.16550   0.56640   0.36050
O          O       0.83450   0.63950   0.20590
O          O       0.83450   0.79410   0.43360
O          O       0.83450   0.56640   0.36050
O          O       0.64520   0.41950   0.85820
O          O       0.64520   0.43870   0.58050
O          O       0.64520   0.14180   0.56130
O          O       0.35480   0.41950   0.85820
O          O       0.35480   0.43870   0.58050
O          O       0.35480   0.14180   0.56130
O          O       0.35480   0.56130   0.14180
O          O       0.35480   0.85820   0.41950
O          O       0.35480   0.58050   0.43870
O          O       0.64520   0.56130   0.14180
O          O       0.64520   0.85820   0.41950
O          O       0.64520   0.58050   0.43870
O          O       0.63530   0.33140   0.00000
O          O       0.63530   0.66860   0.66860
O          O       0.63530   1.00000   0.33140
O          O       0.36470   0.33140   0.00000
O          O       0.36470   0.66860   0.66860
O          O       0.36470   1.00000   0.33140
O          O       0.50000   0.43800   0.17150
O          O       0.50000   0.73350   0.56200
O          O       0.50000   0.82850   0.26650
O          O       0.50000   0.26650   0.82850
O          O       0.50000   0.17150   0.43800
O          O       0.50000   0.56200   0.73350
O          O       1.00000   0.66667   0.33333
O          O       0.00000   0.33333   0.66667
