data_crystal

_cell_length_a    6.76000
_cell_length_b    7.60300
_cell_length_c    17.09300
_cell_angle_alpha 90.00000
_cell_angle_beta  90.00000
_cell_angle_gamma 95.82700

_space_group_name_Hall 'P 1'
_space_group_name_H-M_alt 'P 1'

loop_
_symmetry_equiv_pos_as_xyz
 'x,y,z'

loop_
_atom_site_label
_atom_site_type_symbol
_atom_site_fract_x
_atom_site_fract_y
_atom_site_fract_z
Si         Si      0.66640   0.17910   0.91320
Si         Si      0.33360   0.82090   0.41320
Si         Si      0.33360   0.82090   0.08680
Si         Si      0.66640   0.17910   0.58680
Si         Si      0.60030   0.78500   0.94580
Si         Si      0.39970   0.21500   0.44580
Si         Si      0.39970   0.21500   0.05420
Si         Si      0.60030   0.78500   0.55420
Si         Si      0.44730   0.46670   0.84110
Si         Si      0.55270   0.53330   0.34110
Si         Si      0.55270   0.53330   0.15890
Si         Si      0.44730   0.46670   0.65890
Si         Si      0.08450   0.35070   0.94650
Si         Si      0.91550   0.64930   0.44650
Si         Si      0.91550   0.64930   0.05350
Si         Si      0.08450   0.35070   0.55350
O          O       0.61930   0.96970   0.89890
O          O       0.38070   0.03030   0.39890
O          O       0.38070   0.03030   0.10110
O          O       0.61930   0.96970   0.60110
O          O       0.90190   0.23400   0.90490
O          O       0.09810   0.76600   0.40490
O          O       0.09810   0.76600   0.09510
O          O       0.90190   0.23400   0.59510
O          O       0.59490   0.22770   0.99970
O          O       0.40510   0.77230   0.49970
O          O       0.40510   0.77230   0.00030
O          O       0.59490   0.22770   0.50030
O          O       0.54940   0.28520   0.84950
O          O       0.45060   0.71480   0.34950
O          O       0.45060   0.71480   0.15050
O          O       0.54940   0.28520   0.65050
O          O       0.79410   0.77520   0.99980
O          O       0.20590   0.22480   0.49980
O          O       0.20590   0.22480   0.00020
O          O       0.79410   0.77520   0.50020
O          O       0.58310   0.62350   0.88450
O          O       0.41690   0.37650   0.38450
O          O       0.41690   0.37650   0.11550
O          O       0.58310   0.62350   0.61550
O          O       0.23000   0.44330   0.88060
O          O       0.77000   0.55670   0.38060
O          O       0.77000   0.55670   0.11940
O          O       0.23000   0.44330   0.61940
O          O       0.42700   0.51520   0.75000
O          O       0.57300   0.48480   0.25000
O          O       0.00000   0.50000   0.00000
O          O       0.00000   0.50000   0.50000
