data_crystal

_cell_length_a    14.94067
_cell_length_b    14.94067
_cell_length_c    14.94067
_cell_angle_alpha 109.47122
_cell_angle_beta  109.47122
_cell_angle_gamma 109.47122

_space_group_name_Hall 'P 1'
_space_group_name_H-M_alt 'P 1'

loop_
_symmetry_equiv_pos_as_xyz
 'x,y,z'

loop_
_atom_site_label
_atom_site_type_symbol
_atom_site_fract_x
_atom_site_fract_y
_atom_site_fract_z
O          O       0.51840   0.11620   0.27740
O          O       0.24100   0.72260   0.83880
O          O       0.40220   0.16120   0.88380
O          O       0.01840   0.24100   0.90220
O          O       0.74100   0.40220   0.01840
O          O       0.90220   0.51840   0.74100
O          O       0.16120   0.25900   0.77740
O          O       0.11620   0.09780   0.33880
O          O       0.72260   0.98160   0.38380
O          O       0.66120   0.38380   0.40220
O          O       0.61620   0.77740   0.51840
O          O       0.22260   0.33880   0.24100
O          O       0.01840   0.27740   0.11620
O          O       0.74100   0.83880   0.72260
O          O       0.90220   0.88380   0.16120
O          O       0.51840   0.90220   0.24100
O          O       0.24100   0.01840   0.40220
O          O       0.40220   0.74100   0.51840
O          O       0.66120   0.77740   0.25900
O          O       0.61620   0.33880   0.09780
O          O       0.22260   0.38380   0.98160
O          O       0.16120   0.40220   0.38380
O          O       0.11620   0.51840   0.77740
O          O       0.72260   0.24100   0.33880
O          O       0.48160   0.88380   0.72260
O          O       0.75900   0.27740   0.16120
O          O       0.59780   0.83880   0.11620
O          O       0.98160   0.75900   0.09780
O          O       0.25900   0.59780   0.98160
O          O       0.09780   0.48160   0.25900
O          O       0.83880   0.74100   0.22260
O          O       0.88380   0.90220   0.66120
O          O       0.27740   0.01840   0.61620
O          O       0.33880   0.61620   0.59780
O          O       0.38380   0.22260   0.48160
O          O       0.77740   0.66120   0.75900
O          O       0.98160   0.72260   0.88380
O          O       0.25900   0.16120   0.27740
O          O       0.09780   0.11620   0.83880
O          O       0.48160   0.09780   0.75900
O          O       0.75900   0.98160   0.59780
O          O       0.59780   0.25900   0.48160
O          O       0.33880   0.22260   0.74100
O          O       0.38380   0.66120   0.90220
O          O       0.77740   0.61620   0.01840
O          O       0.83880   0.59780   0.61620
O          O       0.88380   0.48160   0.22260
O          O       0.27740   0.75900   0.66120
O          O       0.56840   0.18020   0.14660
O          O       0.42180   0.85340   0.03360
O          O       0.38820   0.96640   0.81980
O          O       0.06840   0.42180   0.88820
O          O       0.92180   0.38820   0.06840
O          O       0.88820   0.56840   0.92180
O          O       0.96640   0.07820   0.64660
O          O       0.18020   0.11180   0.53360
O          O       0.85340   0.93160   0.31980
O          O       0.46640   0.31980   0.38820
O          O       0.68020   0.64660   0.56840
O          O       0.35340   0.53360   0.42180
O          O       0.06840   0.14660   0.18020
O          O       0.92180   0.03360   0.85340
O          O       0.88820   0.81980   0.96640
O          O       0.56840   0.88820   0.42180
O          O       0.42180   0.06840   0.38820
O          O       0.38820   0.92180   0.56840
O          O       0.46640   0.64660   0.07820
O          O       0.68020   0.53360   0.11180
O          O       0.35340   0.31980   0.93160
O          O       0.96640   0.38820   0.31980
O          O       0.18020   0.56840   0.64660
O          O       0.85340   0.42180   0.53360
O          O       0.43160   0.81980   0.85340
O          O       0.57820   0.14660   0.96640
O          O       0.61180   0.03360   0.18020
O          O       0.93160   0.57820   0.11180
O          O       0.07820   0.61180   0.93160
O          O       0.11180   0.43160   0.07820
O          O       0.03360   0.92180   0.35340
O          O       0.81980   0.88820   0.46640
O          O       0.14660   0.06840   0.68020
O          O       0.53360   0.68020   0.61180
O          O       0.31980   0.35340   0.43160
O          O       0.64660   0.46640   0.57820
O          O       0.93160   0.85340   0.81980
O          O       0.07820   0.96640   0.14660
O          O       0.11180   0.18020   0.03360
O          O       0.43160   0.11180   0.57820
O          O       0.57820   0.93160   0.61180
O          O       0.61180   0.07820   0.43160
O          O       0.53360   0.35340   0.92180
O          O       0.31980   0.46640   0.88820
O          O       0.64660   0.68020   0.06840
O          O       0.03360   0.61180   0.68020
O          O       0.81980   0.43160   0.35340
O          O       0.14660   0.57820   0.46640
Si         Si      0.60500   0.14220   0.23520
Si         Si      0.36980   0.76480   0.90700
Si         Si      0.46280   0.09300   0.85780
Si         Si      0.10500   0.36980   0.96280
Si         Si      0.86980   0.46280   0.10500
Si         Si      0.96280   0.60500   0.86980
Si         Si      0.09300   0.13020   0.73520
Si         Si      0.14220   0.03720   0.40700
Si         Si      0.76480   0.89500   0.35780
Si         Si      0.59300   0.35780   0.46280
Si         Si      0.64220   0.73520   0.60500
Si         Si      0.26480   0.40700   0.36980
Si         Si      0.10500   0.23520   0.14220
Si         Si      0.86980   0.90700   0.76480
Si         Si      0.96280   0.85780   0.09300
Si         Si      0.60500   0.96280   0.36980
Si         Si      0.36980   0.10500   0.46280
Si         Si      0.46280   0.86980   0.60500
Si         Si      0.59300   0.73520   0.13020
Si         Si      0.64220   0.40700   0.03720
Si         Si      0.26480   0.35780   0.89500
Si         Si      0.09300   0.46280   0.35780
Si         Si      0.14220   0.60500   0.73520
Si         Si      0.76480   0.36980   0.40700
Si         Si      0.39500   0.85780   0.76480
Si         Si      0.63020   0.23520   0.09300
Si         Si      0.53720   0.90700   0.14220
Si         Si      0.89500   0.63020   0.03720
Si         Si      0.13020   0.53720   0.89500
Si         Si      0.03720   0.39500   0.13020
Si         Si      0.90700   0.86980   0.26480
Si         Si      0.85780   0.96280   0.59300
Si         Si      0.23520   0.10500   0.64220
Si         Si      0.40700   0.64220   0.53720
Si         Si      0.35780   0.26480   0.39500
Si         Si      0.73520   0.59300   0.63020
Si         Si      0.89500   0.76480   0.85780
Si         Si      0.13020   0.09300   0.23520
Si         Si      0.03720   0.14220   0.90700
Si         Si      0.39500   0.03720   0.63020
Si         Si      0.63020   0.89500   0.53720
Si         Si      0.53720   0.13020   0.39500
Si         Si      0.40700   0.26480   0.86980
Si         Si      0.35780   0.59300   0.96280
Si         Si      0.73520   0.64220   0.10500
Si         Si      0.90700   0.53720   0.64220
Si         Si      0.85780   0.39500   0.26480
Si         Si      0.23520   0.63020   0.59300
