data_crystal

_cell_length_a    5.25400
_cell_length_b    12.49400
_cell_length_c    12.49400
_cell_angle_alpha 120.00000
_cell_angle_beta  90.00000
_cell_angle_gamma 90.00000

_space_group_name_Hall 'P 1'
_space_group_name_H-M_alt 'P 1'

loop_
_symmetry_equiv_pos_as_xyz
 'x,y,z'

loop_
_atom_site_label
_atom_site_type_symbol
_atom_site_fract_x
_atom_site_fract_y
_atom_site_fract_z
Si         Si      0.25000   0.91780   0.33680
Si         Si      0.25000   0.41900   0.08220
Si         Si      0.25000   0.66320   0.58100
Si         Si      0.75000   0.08220   0.66320
Si         Si      0.75000   0.58100   0.91780
Si         Si      0.75000   0.33680   0.41900
Si         Si      0.25000   0.41900   0.33680
Si         Si      0.25000   0.66320   0.08220
Si         Si      0.25000   0.91780   0.58100
Si         Si      0.75000   0.58100   0.66320
Si         Si      0.75000   0.33680   0.91780
Si         Si      0.75000   0.08220   0.41900
O          O       0.50000   1.00000   0.35650
O          O       0.50000   0.35650   0.00000
O          O       0.50000   0.64350   0.64350
O          O       0.00000   0.00000   0.64350
O          O       0.00000   0.64350   0.00000
O          O       1.00000   0.35650   0.35650
O          O       0.50000   0.35650   0.35650
O          O       0.50000   0.64350   0.00000
O          O       0.50000   0.00000   0.64350
O          O       1.00000   0.64350   0.64350
O          O       0.00000   0.35650   0.00000
O          O       0.00000   1.00000   0.35650
O          O       0.25000   0.80140   0.19860
O          O       0.25000   0.39720   0.19860
O          O       0.25000   0.80140   0.60280
O          O       0.75000   0.19860   0.80140
O          O       0.75000   0.60280   0.80140
O          O       0.75000   0.19860   0.39720
O          O       0.25000   0.87010   0.43510
O          O       0.25000   0.56500   0.12990
O          O       0.25000   0.56490   0.43500
O          O       0.75000   0.12990   0.56490
O          O       0.75000   0.43500   0.87010
O          O       0.75000   0.43510   0.56500
