data_crystal

_cell_length_a    5.25600
_cell_length_b    7.53888
_cell_length_c    17.22700
_cell_angle_alpha 90.00000
_cell_angle_beta  90.00000
_cell_angle_gamma 110.40127

_space_group_name_Hall 'P 1'
_space_group_name_H-M_alt 'P 1'

loop_
_symmetry_equiv_pos_as_xyz
 'x,y,z'

loop_
_atom_site_label
_atom_site_type_symbol
_atom_site_fract_x
_atom_site_fract_y
_atom_site_fract_z
O          O       0.17300   0.34600   0.11590
O          O       0.82700   0.65400   0.61590
O          O       0.82700   0.65400   0.88410
O          O       0.17300   0.34600   0.38410
O          O       0.50000   0.50000   0.00000
O          O       0.00000   0.50000   0.00000
O          O       0.00000   0.50000   0.50000
O          O       0.50000   0.50000   0.50000
O          O       0.35760   0.71520   0.09810
O          O       0.64240   0.28480   0.59810
O          O       0.64240   0.28480   0.90190
O          O       0.35760   0.71520   0.40190
O          O       0.76310   0.02620   0.13180
O          O       0.26310   0.02620   0.13180
O          O       0.73690   0.97380   0.63180
O          O       0.23690   0.97380   0.63180
O          O       0.23690   0.97380   0.86820
O          O       0.73690   0.97380   0.86820
O          O       0.26310   0.02620   0.36820
O          O       0.76310   0.02620   0.36820
O          O       0.08510   0.17020   0.25000
O          O       0.91490   0.82980   0.75000
O          O       0.50000   0.00000   0.00000
O          O       0.50000   0.00000   0.50000
Si         Si      0.25760   0.51520   0.05340
Si         Si      0.74240   0.48480   0.55340
Si         Si      0.74240   0.48480   0.94660
Si         Si      0.25760   0.51520   0.44660
Si         Si      0.07090   0.14180   0.15740
Si         Si      0.92910   0.85820   0.65740
Si         Si      0.92910   0.85820   0.84260
Si         Si      0.07090   0.14180   0.34260
Si         Si      0.47110   0.94220   0.09030
Si         Si      0.52890   0.05780   0.59030
Si         Si      0.52890   0.05780   0.90970
Si         Si      0.47110   0.94220   0.40970
