data_crystal

_cell_length_a    7.55700
_cell_length_b    10.09157
_cell_length_c    14.09900
_cell_angle_alpha 90.00000
_cell_angle_beta  90.00000
_cell_angle_gamma 111.98855

_space_group_name_Hall 'P 1'
_space_group_name_H-M_alt 'P 1'

loop_
_symmetry_equiv_pos_as_xyz
 'x,y,z'

loop_
_atom_site_label
_atom_site_type_symbol
_atom_site_fract_x
_atom_site_fract_y
_atom_site_fract_z
O          O       0.50000   0.50000   0.00000
O          O       0.00000   0.50000   1.00000
O          O       0.00000   0.50000   0.50000
O          O       0.50000   0.50000   0.50000
O          O       0.29010   0.23140   0.00160
O          O       0.94130   0.23140   0.00160
O          O       0.05870   0.76860   0.50160
O          O       0.70990   0.76860   0.50160
O          O       0.70990   0.76860   0.99840
O          O       0.05870   0.76860   0.99840
O          O       0.94130   0.23140   0.49840
O          O       0.29010   0.23140   0.49840
O          O       0.65550   0.31100   0.04280
O          O       0.34450   0.68900   0.54280
O          O       0.34450   0.68900   0.95720
O          O       0.65550   0.31100   0.45720
O          O       0.42930   0.38060   0.16000
O          O       0.95130   0.38060   0.16000
O          O       0.04870   0.61940   0.66000
O          O       0.57070   0.61940   0.66000
O          O       0.57070   0.61940   0.84000
O          O       0.04870   0.61940   0.84000
O          O       0.95130   0.38060   0.34000
O          O       0.42930   0.38060   0.34000
O          O       0.63950   0.62360   0.25000
O          O       0.98410   0.62360   0.25000
O          O       0.01590   0.37640   0.75000
O          O       0.36050   0.37640   0.75000
O          O       0.26540   0.53080   0.25000
O          O       0.73460   0.46920   0.75000
O          O       0.00000   0.00000   0.50000
O          O       0.00000   0.00000   0.00000
O          O       0.08750   0.17500   0.65650
O          O       0.91250   0.82500   0.15650
O          O       0.91250   0.82500   0.34350
O          O       0.08750   0.17500   0.84350
Si         Si      0.46990   0.35160   0.05160
Si         Si      0.88170   0.35160   0.05160
Si         Si      0.11830   0.64840   0.55160
Si         Si      0.53010   0.64840   0.55160
Si         Si      0.53010   0.64840   0.94840
Si         Si      0.11830   0.64840   0.94840
Si         Si      0.88170   0.35160   0.44840
Si         Si      0.46990   0.35160   0.44840
Si         Si      0.44630   0.48300   0.25000
Si         Si      0.03670   0.48300   0.25000
Si         Si      0.96330   0.51700   0.75000
Si         Si      0.55370   0.51700   0.75000
Si         Si      0.07950   0.15900   0.54290
Si         Si      0.92050   0.84100   0.04290
Si         Si      0.92050   0.84100   0.45710
Si         Si      0.07950   0.15900   0.95710
Si         Si      0.86260   0.72520   0.25000
Si         Si      0.13740   0.27480   0.75000
