data_crystal

_cell_length_a    5.26400
_cell_length_b    13.96100
_cell_length_c    14.97418
_cell_angle_alpha 117.78591
_cell_angle_beta  100.12343
_cell_angle_gamma 90.00000

_space_group_name_Hall 'P 1'
_space_group_name_H-M_alt 'P 1'

loop_
_symmetry_equiv_pos_as_xyz
 'x,y,z'

loop_
_atom_site_label
_atom_site_type_symbol
_atom_site_fract_x
_atom_site_fract_y
_atom_site_fract_z
O          O       0.69290   0.94290   0.88580
O          O       0.30710   0.05710   0.11420
O          O       0.58210   0.73810   0.66420
O          O       0.58210   0.92610   0.66420
O          O       0.41790   0.26190   0.33580
O          O       0.41790   0.07390   0.33580
O          O       0.26100   0.76110   0.52220
O          O       0.76120   0.76110   0.52220
O          O       0.73900   0.23890   0.47780
O          O       0.23880   0.23890   0.47780
O          O       0.00000   0.87670   0.00000
O          O       0.00000   0.12330   0.00000
O          O       0.50000   0.87670   0.00000
O          O       0.50000   0.12330   0.00000
O          O       0.66940   0.73430   0.83880
O          O       0.66940   0.10450   0.83880
O          O       0.33060   0.26570   0.16120
O          O       0.33060   0.89550   0.16120
O          O       0.00000   0.50000   0.50000
O          O       0.00000   0.00000   0.50000
O          O       0.94070   0.59570   0.38140
O          O       0.94070   0.78570   0.38140
O          O       0.05930   0.40430   0.61860
O          O       0.05930   0.21430   0.61860
O          O       0.33810   0.58450   0.67740
O          O       0.33810   0.09290   0.67740
O          O       0.83930   0.58450   0.67740
O          O       0.83930   0.09290   0.67740
O          O       0.66190   0.41550   0.32260
O          O       0.66190   0.90710   0.32260
O          O       0.16070   0.41550   0.32260
O          O       0.16070   0.90710   0.32260
Si         Si      0.71540   0.85780   0.93080
Si         Si      0.71540   0.07300   0.93080
Si         Si      0.28460   0.14220   0.06920
Si         Si      0.28460   0.92700   0.06920
Si         Si      0.97570   0.72570   0.45140
Si         Si      0.02430   0.27430   0.54860
Si         Si      0.05810   0.51850   0.61620
Si         Si      0.05810   0.09770   0.61620
Si         Si      0.94190   0.48150   0.38380
Si         Si      0.94190   0.90230   0.38380
Si         Si      0.54650   0.79650   0.59300
Si         Si      0.45350   0.20350   0.40700
Si         Si      0.60790   0.65920   0.71580
Si         Si      0.60790   0.05660   0.71580
Si         Si      0.39210   0.34080   0.28420
Si         Si      0.39210   0.94340   0.28420
