data_crystal

_cell_length_a    7.27300
_cell_length_b    11.46689
_cell_length_c    11.46689
_cell_angle_alpha 94.95148
_cell_angle_beta  94.09855
_cell_angle_gamma 94.09855

_space_group_name_Hall 'P 1'
_space_group_name_H-M_alt 'P 1'

loop_
_symmetry_equiv_pos_as_xyz
 'x,y,z'

loop_
_atom_site_label
_atom_site_type_symbol
_atom_site_fract_x
_atom_site_fract_y
_atom_site_fract_z
O          O       0.64300   0.21400   0.69620
O          O       0.35700   0.30380   0.78600
O          O       0.35700   0.78600   0.30380
O          O       0.64300   0.69620   0.21400
O          O       0.38900   0.07580   0.77880
O          O       0.61100   0.22120   0.92420
O          O       0.61100   0.92420   0.22120
O          O       0.38900   0.77880   0.07580
O          O       0.80830   0.11320   0.32340
O          O       0.19170   0.67660   0.88680
O          O       0.19170   0.88680   0.67660
O          O       0.80830   0.32340   0.11320
O          O       0.45190   0.08360   0.34880
O          O       0.54810   0.65120   0.91640
O          O       0.54810   0.91640   0.65120
O          O       0.45190   0.34880   0.08360
O          O       0.68210   0.94840   0.44900
O          O       0.31790   0.55100   0.05160
O          O       0.31790   0.05160   0.55100
O          O       0.68210   0.44900   0.94840
O          O       0.85920   0.04660   0.64440
O          O       0.14080   0.35560   0.95340
O          O       0.14080   0.95340   0.35560
O          O       0.85920   0.64440   0.04660
O          O       0.87140   0.23520   0.52960
O          O       0.12860   0.47040   0.76480
O          O       0.12860   0.76480   0.47040
O          O       0.87140   0.52960   0.23520
O          O       0.00000   0.24840   0.75160
O          O       0.00000   0.75160   0.24840
O          O       0.14920   0.18180   0.40540
O          O       0.85080   0.59460   0.81820
O          O       0.85080   0.81820   0.59460
O          O       0.14920   0.40540   0.18180
O          O       0.92470   0.33660   0.33660
O          O       0.07530   0.66340   0.66340
Si         Si      0.06170   0.78340   0.60120
Si         Si      0.93830   0.39880   0.21660
Si         Si      0.93830   0.21660   0.39880
Si         Si      0.06170   0.60120   0.78340
Si         Si      0.84390   0.18650   0.65530
Si         Si      0.15610   0.34470   0.81350
Si         Si      0.15610   0.81350   0.34470
Si         Si      0.84390   0.65530   0.18650
Si         Si      0.63880   0.01800   0.33540
Si         Si      0.36120   0.66460   0.98200
Si         Si      0.36120   0.98200   0.66460
Si         Si      0.63880   0.33540   0.01800
Si         Si      0.26490   0.06800   0.41500
Si         Si      0.73510   0.58500   0.93200
Si         Si      0.73510   0.93200   0.58500
Si         Si      0.26490   0.41500   0.06800
Si         Si      0.50000   0.20360   0.79640
Si         Si      0.50000   0.79640   0.20360
