data_crystal

_cell_length_a    8.44400
_cell_length_b    14.08300
_cell_length_c    15.92900
_cell_angle_alpha 90.00000
_cell_angle_beta  90.00000
_cell_angle_gamma 90.00000

_space_group_name_Hall 'P 1'
_space_group_name_H-M_alt 'P 1'

loop_
_symmetry_equiv_pos_as_xyz
 'x,y,z'

loop_
_atom_site_label
_atom_site_type_symbol
_atom_site_fract_x
_atom_site_fract_y
_atom_site_fract_z
Si         Si      0.82450   0.14170   0.15960
Si         Si      0.67550   0.64170   0.65960
Si         Si      0.82450   0.35830   0.15960
Si         Si      0.67550   0.85830   0.65960
Si         Si      0.17550   0.85830   0.84040
Si         Si      0.32450   0.35830   0.34040
Si         Si      0.17550   0.64170   0.84040
Si         Si      0.32450   0.14170   0.34040
Si         Si      0.55580   0.35890   0.03290
Si         Si      0.94420   0.85890   0.53290
Si         Si      0.55580   0.14110   0.03290
Si         Si      0.94420   0.64110   0.53290
Si         Si      0.44420   0.64110   0.96710
Si         Si      0.05580   0.14110   0.46710
Si         Si      0.44420   0.85890   0.96710
Si         Si      0.05580   0.35890   0.46710
Si         Si      0.11280   0.46950   0.22120
Si         Si      0.38720   0.96950   0.72120
Si         Si      0.11280   0.03050   0.22120
Si         Si      0.38720   0.53050   0.72120
Si         Si      0.88720   0.53050   0.77880
Si         Si      0.61280   0.03050   0.27880
Si         Si      0.88720   0.96950   0.77880
Si         Si      0.61280   0.46950   0.27880
Si         Si      0.41040   0.97340   0.12960
Si         Si      0.08960   0.47340   0.62960
Si         Si      0.41040   0.52660   0.12960
Si         Si      0.08960   0.02660   0.62960
Si         Si      0.58960   0.02660   0.87040
Si         Si      0.91040   0.52660   0.37040
Si         Si      0.58960   0.47340   0.87040
Si         Si      0.91040   0.97340   0.37040
O          O       0.88390   0.25000   0.16740
O          O       0.61610   0.75000   0.66740
O          O       0.11610   0.75000   0.83260
O          O       0.38390   0.25000   0.33260
O          O       0.72980   0.12830   0.07270
O          O       0.77020   0.62830   0.57270
O          O       0.72980   0.37170   0.07270
O          O       0.77020   0.87170   0.57270
O          O       0.27020   0.87170   0.92730
O          O       0.22980   0.37170   0.42730
O          O       0.27020   0.62830   0.92730
O          O       0.22980   0.12830   0.42730
O          O       0.97500   0.07150   0.16150
O          O       0.52500   0.57150   0.66150
O          O       0.97500   0.42850   0.16150
O          O       0.52500   0.92850   0.66150
O          O       0.02500   0.92850   0.83850
O          O       0.47500   0.42850   0.33850
O          O       0.02500   0.57150   0.83850
O          O       0.47500   0.07150   0.33850
O          O       0.70860   0.11730   0.23700
O          O       0.79140   0.61730   0.73700
O          O       0.70860   0.38270   0.23700
O          O       0.79140   0.88270   0.73700
O          O       0.29140   0.88270   0.76300
O          O       0.20860   0.38270   0.26300
O          O       0.29140   0.61730   0.76300
O          O       0.20860   0.11730   0.26300
O          O       0.56010   0.38730   0.93500
O          O       0.93990   0.88730   0.43500
O          O       0.56010   0.11270   0.93500
O          O       0.93990   0.61270   0.43500
O          O       0.43990   0.61270   0.06500
O          O       0.06010   0.11270   0.56500
O          O       0.43990   0.88730   0.06500
O          O       0.06010   0.38730   0.56500
O          O       0.43300   0.42700   0.08150
O          O       0.06700   0.92700   0.58150
O          O       0.43300   0.07300   0.08150
O          O       0.06700   0.57300   0.58150
O          O       0.56700   0.57300   0.91850
O          O       0.93300   0.07300   0.41850
O          O       0.56700   0.92700   0.91850
O          O       0.93300   0.42700   0.41850
O          O       0.50080   0.25000   0.04240
O          O       0.99920   0.75000   0.54240
O          O       0.49920   0.75000   0.95760
O          O       0.00080   0.25000   0.45760
O          O       0.03520   0.53350   0.29420
O          O       0.46480   0.03350   0.79420
O          O       0.03520   0.96650   0.29420
O          O       0.46480   0.46650   0.79420
O          O       0.96480   0.46650   0.70580
O          O       0.53520   0.96650   0.20580
O          O       0.96480   0.03350   0.70580
O          O       0.53520   0.53350   0.20580
O          O       0.23300   0.53300   0.16640
O          O       0.26700   0.03300   0.66640
O          O       0.23300   0.96700   0.16640
O          O       0.26700   0.46700   0.66640
O          O       0.76700   0.46700   0.83360
O          O       0.73300   0.96700   0.33360
O          O       0.76700   0.03300   0.83360
O          O       0.73300   0.53300   0.33360
