data_crystal

_cell_length_a    9.21893
_cell_length_b    11.18216
_cell_length_c    13.02702
_cell_angle_alpha 104.50000
_cell_angle_beta  107.30000
_cell_angle_gamma 92.35000

_space_group_name_Hall 'P 1'
_space_group_name_H-M_alt 'P 1'

loop_
_symmetry_equiv_pos_as_xyz
 'x,y,z'

loop_
_atom_site_label
_atom_site_type_symbol
_atom_site_fract_x
_atom_site_fract_y
_atom_site_fract_z
Si         Si      0.76974   0.50321   0.73283
Si         Si      0.23026   0.49679   0.26717
Si         Si      0.09466   0.44979   0.72726
Si         Si      0.90534   0.55021   0.27274
Si         Si      0.32326   0.60840   0.67634
Si         Si      0.67674   0.39160   0.32366
Si         Si      0.58098   0.57352   0.88278
Si         Si      0.41902   0.42648   0.11722
Si         Si      0.26176   0.84955   0.59266
Si         Si      0.73824   0.15045   0.40734
Si         Si      0.34707   0.12629   0.66560
Si         Si      0.65293   0.87371   0.33440
Si         Si      0.36944   0.35302   0.87102
Si         Si      0.63056   0.64698   0.12898
Si         Si      0.68403   0.61077   0.52391
Si         Si      0.31597   0.38923   0.47609
Si         Si      0.07815   0.23192   0.52790
Si         Si      0.92185   0.76808   0.47210
Si         Si      0.57803   0.24982   0.58149
Si         Si      0.42197   0.75018   0.41851
O          O       0.95170   0.49927   0.76478
O          O       0.04830   0.50073   0.23522
O          O       0.71146   0.57957   0.64185
O          O       0.28854   0.42043   0.35815
O          O       0.68116   0.36387   0.68321
O          O       0.31884   0.63613   0.31679
O          O       0.73245   0.57058   0.84519
O          O       0.26755   0.42942   0.15481
O          O       0.03738   0.31956   0.63149
O          O       0.96262   0.68044   0.36851
O          O       0.22546   0.42620   0.83121
O          O       0.77454   0.57380   0.16879
O          O       0.16173   0.55171   0.67954
O          O       0.83827   0.44829   0.32046
O          O       0.31323   0.74429   0.65591
O          O       0.68677   0.25571   0.34409
O          O       0.36702   0.51573   0.57680
O          O       0.63298   0.48427   0.42320
O          O       0.45030   0.62218   0.79554
O          O       0.54970   0.37782   0.20446
O          O       0.52325   0.43465   0.88035
O          O       0.47675   0.56535   0.11965
O          O       0.61818   0.66367   0.00746
O          O       0.38182   0.33633   0.99254
O          O       0.34179   0.98487   0.67386
O          O       0.65821   0.01513   0.32614
O          O       0.31299   0.82396   0.48198
O          O       0.68701   0.17604   0.51802
O          O       0.07868   0.84634   0.56113
O          O       0.92132   0.15366   0.43887
O          O       0.19406   0.13781   0.57063
O          O       0.80594   0.86219   0.42937
O          O       0.35218   0.21906   0.78340
O          O       0.64782   0.78094   0.21660
O          O       0.49490   0.15977   0.63169
O          O       0.50510   0.84023   0.36831
O          O       0.84134   0.68164   0.52670
O          O       0.15866   0.31836   0.47330
O          O       0.55022   0.69891   0.50541
O          O       0.44978   0.30109   0.49459
