data_crystal

_cell_length_a    9.35500
_cell_length_b    9.35500
_cell_length_c    14.86200
_cell_angle_alpha 90.00000
_cell_angle_beta  90.00000
_cell_angle_gamma 120.00000

_space_group_name_Hall 'P 1'
_space_group_name_H-M_alt 'P 1'

loop_
_symmetry_equiv_pos_as_xyz
 'x,y,z'

loop_
_atom_site_label
_atom_site_type_symbol
_atom_site_fract_x
_atom_site_fract_y
_atom_site_fract_z
Si         Si      0.17900   0.77180   0.56630
Si         Si      0.59280   0.82100   0.23297
Si         Si      0.22820   0.40720   0.89963
Si         Si      0.40720   0.22820   0.10037
Si         Si      0.77180   0.17900   0.43370
Si         Si      0.82100   0.59280   0.76703
Si         Si      0.82100   0.22820   0.06630
Si         Si      0.40720   0.17900   0.73297
Si         Si      0.77180   0.59280   0.39963
Si         Si      0.59280   0.77180   0.60037
Si         Si      0.22820   0.82100   0.93370
Si         Si      0.17900   0.40720   0.26703
Si         Si      0.53220   0.06440   0.58330
Si         Si      0.53220   0.46780   0.24997
Si         Si      0.93560   0.46780   0.91663
Si         Si      0.46780   0.93560   0.08337
Si         Si      0.06440   0.53220   0.41670
Si         Si      0.46780   0.53220   0.75003
Si         Si      0.16670   0.83337   0.75000
Si         Si      0.66667   0.83330   0.41667
Si         Si      0.16663   0.33333   0.08333
Si         Si      0.33333   0.16663   0.91667
Si         Si      0.83337   0.16670   0.25000
Si         Si      0.83330   0.66667   0.58333
O          O       0.16470   0.71580   0.67010
O          O       0.55110   0.83530   0.33677
O          O       0.28420   0.44890   0.00343
O          O       0.44890   0.28420   0.99657
O          O       0.71580   0.16470   0.32990
O          O       0.83530   0.55110   0.66323
O          O       0.83530   0.28420   0.17010
O          O       0.44890   0.16470   0.83677
O          O       0.71580   0.55110   0.50343
O          O       0.55110   0.71580   0.49657
O          O       0.28420   0.83530   0.82990
O          O       0.16470   0.44890   0.16323
O          O       0.98360   0.76690   0.78950
O          O       0.78330   0.01640   0.45617
O          O       0.23310   0.21670   0.12283
O          O       0.21670   0.23310   0.87717
O          O       0.76690   0.98360   0.21050
O          O       0.01640   0.78330   0.54383
O          O       0.01640   0.23310   0.28950
O          O       0.21670   0.98360   0.95617
O          O       0.76690   0.78330   0.62283
O          O       0.78330   0.76690   0.37717
O          O       0.23310   0.01640   0.71050
O          O       0.98360   0.21670   0.04383
O          O       0.34250   0.94890   0.55330
O          O       0.60640   0.65750   0.21997
O          O       0.05110   0.39360   0.88663
O          O       0.39360   0.05110   0.11337
O          O       0.94890   0.34250   0.44670
O          O       0.65750   0.60640   0.78003
O          O       0.65750   0.05110   0.05330
O          O       0.39360   0.34250   0.71997
O          O       0.94890   0.60640   0.38663
O          O       0.60640   0.94890   0.61337
O          O       0.05110   0.65750   0.94670
O          O       0.34250   0.39360   0.28003
O          O       0.17990   0.63610   0.50010
O          O       0.45620   0.82010   0.16677
O          O       0.36390   0.54380   0.83343
O          O       0.54380   0.36390   0.16657
O          O       0.63610   0.17990   0.49990
O          O       0.82010   0.45620   0.83323
O          O       0.82010   0.36390   0.00010
O          O       0.54380   0.17990   0.66677
O          O       0.63610   0.45620   0.33343
O          O       0.45620   0.63610   0.66657
O          O       0.36390   0.82010   0.99990
O          O       0.17990   0.54380   0.33323
