data_crystal

_cell_length_a    7.54200
_cell_length_b    10.02341
_cell_length_c    10.37700
_cell_angle_alpha 107.48040
_cell_angle_beta  90.00000
_cell_angle_gamma 112.09968

_space_group_name_Hall 'P 1'
_space_group_name_H-M_alt 'P 1'

loop_
_symmetry_equiv_pos_as_xyz
 'x,y,z'

loop_
_atom_site_label
_atom_site_type_symbol
_atom_site_fract_x
_atom_site_fract_y
_atom_site_fract_z
O          O       0.68750   0.72360   0.22350
O          O       0.96390   0.27640   0.77650
O          O       0.31250   0.27640   0.77650
O          O       0.03610   0.72360   0.22350
O          O       0.50000   0.50000   0.00000
O          O       0.00000   0.50000   0.00000
O          O       0.47670   0.45180   0.23580
O          O       0.02490   0.54820   0.76420
O          O       0.52330   0.54820   0.76420
O          O       0.97510   0.45180   0.23580
O          O       0.30950   0.61900   0.17960
O          O       0.69050   0.38100   0.82040
O          O       0.33380   0.66760   0.65350
O          O       0.66620   0.33240   0.34650
O          O       0.50000   0.50000   0.50000
O          O       0.00000   0.50000   0.50000
O          O       0.71150   0.77140   0.67000
O          O       0.94010   0.22860   0.33000
O          O       0.28850   0.22860   0.33000
O          O       0.05990   0.77140   0.67000
O          O       0.99040   0.98080   0.32230
O          O       0.00960   0.01920   0.67770
O          O       0.89090   0.78180   0.45400
O          O       0.10910   0.21820   0.54600
Si         Si      0.49320   0.57340   0.15960
Si         Si      0.91980   0.42660   0.84040
Si         Si      0.50680   0.42660   0.84040
Si         Si      0.08020   0.57340   0.15960
Si         Si      0.51680   0.62120   0.64670
Si         Si      0.89560   0.37880   0.35330
Si         Si      0.48320   0.37880   0.35330
Si         Si      0.10440   0.62120   0.64670
Si         Si      0.90130   0.80260   0.30600
Si         Si      0.09870   0.19740   0.69400
Si         Si      0.91810   0.83620   0.61790
Si         Si      0.08190   0.16380   0.38210
