data_crystal

_cell_length_a    13.79500
_cell_length_b    13.79500
_cell_length_c    40.75000
_cell_angle_alpha 90.00000
_cell_angle_beta  90.00000
_cell_angle_gamma 120.00000

_space_group_name_Hall 'P 1'
_space_group_name_H-M_alt 'P 1'

loop_
_symmetry_equiv_pos_as_xyz
 'x,y,z'

loop_
_atom_site_label
_atom_site_type_symbol
_atom_site_fract_x
_atom_site_fract_y
_atom_site_fract_z
Si         Si      0.27190   0.32580   0.93020
Si         Si      0.60523   0.99247   0.59687
Si         Si      0.93857   0.65913   0.26353
Si         Si      0.05390   0.72810   0.93020
Si         Si      0.38723   0.39477   0.59687
Si         Si      0.72057   0.06143   0.26353
Si         Si      0.67420   0.94610   0.93020
Si         Si      0.00753   0.61277   0.59687
Si         Si      0.34087   0.27943   0.26353
Si         Si      0.05390   0.32580   0.93020
Si         Si      0.38723   0.99247   0.59687
Si         Si      0.72057   0.65913   0.26353
Si         Si      0.67420   0.72810   0.93020
Si         Si      0.00753   0.39477   0.59687
Si         Si      0.34087   0.06143   0.26353
Si         Si      0.27190   0.94610   0.93020
Si         Si      0.60523   0.61277   0.59687
Si         Si      0.93857   0.27943   0.26353
Si         Si      0.72810   0.67420   0.06980
Si         Si      0.06143   0.34087   0.73647
Si         Si      0.39477   0.00753   0.40313
Si         Si      0.94610   0.27190   0.06980
Si         Si      0.27943   0.93857   0.73647
Si         Si      0.61277   0.60523   0.40313
Si         Si      0.32580   0.05390   0.06980
Si         Si      0.65913   0.72057   0.73647
Si         Si      0.99247   0.38723   0.40313
Si         Si      0.94610   0.67420   0.06980
Si         Si      0.27943   0.34087   0.73647
Si         Si      0.61277   0.00753   0.40313
Si         Si      0.32580   0.27190   0.06980
Si         Si      0.65913   0.93857   0.73647
Si         Si      0.99247   0.60523   0.40313
Si         Si      0.72810   0.05390   0.06980
Si         Si      0.06143   0.72057   0.73647
Si         Si      0.39477   0.38723   0.40313
Si         Si      0.86910   0.13090   0.89250
Si         Si      0.20243   0.79757   0.55917
Si         Si      0.53577   0.46423   0.22583
Si         Si      0.26180   0.13090   0.89250
Si         Si      0.59513   0.79757   0.55917
Si         Si      0.92847   0.46423   0.22583
Si         Si      0.86910   0.73820   0.89250
Si         Si      0.20243   0.40487   0.55917
Si         Si      0.53577   0.07153   0.22583
Si         Si      0.13090   0.86910   0.10750
Si         Si      0.46423   0.53577   0.77417
Si         Si      0.79757   0.20243   0.44083
Si         Si      0.73820   0.86910   0.10750
Si         Si      0.07153   0.53577   0.77417
Si         Si      0.40487   0.20243   0.44083
Si         Si      0.13090   0.26180   0.10750
Si         Si      0.46423   0.92847   0.77417
Si         Si      0.79757   0.59513   0.44083
Si         Si      0.80010   0.20000   0.82820
Si         Si      0.13343   0.86667   0.49487
Si         Si      0.46677   0.53333   0.16153
Si         Si      0.39990   0.19990   0.82820
Si         Si      0.73323   0.86657   0.49487
Si         Si      0.06657   0.53323   0.16153
Si         Si      0.80000   0.60010   0.82820
Si         Si      0.13333   0.26677   0.49487
Si         Si      0.46667   0.93343   0.16153
Si         Si      0.19990   0.80000   0.17180
Si         Si      0.53323   0.46667   0.83847
Si         Si      0.86657   0.13333   0.50513
Si         Si      0.60010   0.80010   0.17180
Si         Si      0.93343   0.46677   0.83847
Si         Si      0.26677   0.13343   0.50513
Si         Si      0.20000   0.39990   0.17180
Si         Si      0.53333   0.06657   0.83847
Si         Si      0.86667   0.73323   0.50513
Si         Si      0.88130   0.11870   0.76910
Si         Si      0.21463   0.78537   0.43577
Si         Si      0.54797   0.45203   0.10243
Si         Si      0.23740   0.11870   0.76910
Si         Si      0.57073   0.78537   0.43577
Si         Si      0.90407   0.45203   0.10243
Si         Si      0.88130   0.76260   0.76910
Si         Si      0.21463   0.42927   0.43577
Si         Si      0.54797   0.09593   0.10243
Si         Si      0.11870   0.88130   0.23090
Si         Si      0.45203   0.54797   0.89757
Si         Si      0.78537   0.21463   0.56423
Si         Si      0.76260   0.88130   0.23090
Si         Si      0.09593   0.54797   0.89757
Si         Si      0.42927   0.21463   0.56423
Si         Si      0.11870   0.23740   0.23090
Si         Si      0.45203   0.90407   0.89757
Si         Si      0.78537   0.57073   0.56423
Si         Si      0.77440   0.77440   0.00000
Si         Si      0.10773   0.44107   0.66667
Si         Si      0.44107   0.10773   0.33333
Si         Si      0.00000   0.22560   1.00000
Si         Si      0.33333   0.89227   0.66667
Si         Si      0.66667   0.55893   0.33333
Si         Si      0.22560   0.00000   1.00000
Si         Si      0.55893   0.66667   0.66667
Si         Si      0.89227   0.33333   0.33333
Si         Si      0.00000   0.77440   1.00000
Si         Si      0.33333   0.44107   0.66667
Si         Si      0.66667   0.10773   0.33333
Si         Si      0.22560   0.22560   0.00000
Si         Si      0.55893   0.89227   0.66667
Si         Si      0.89227   0.55893   0.33333
Si         Si      0.77440   0.00000   0.00000
Si         Si      0.10773   0.66667   0.66667
Si         Si      0.44107   0.33333   0.33333
Si         Si      0.00000   0.00000   0.80440
Si         Si      0.33333   0.66667   0.47107
Si         Si      0.66667   0.33333   0.13773
Si         Si      0.00000   0.00000   0.19560
Si         Si      0.33333   0.66667   0.86227
Si         Si      0.66667   0.33333   0.52893
Si         Si      0.00000   0.00000   0.88340
Si         Si      0.33333   0.66667   0.55007
Si         Si      0.66667   0.33333   0.21673
Si         Si      0.00000   0.00000   0.11660
Si         Si      0.33333   0.66667   0.78327
Si         Si      0.66667   0.33333   0.44993
O          O       0.31110   0.25050   0.91040
O          O       0.64443   0.91717   0.57707
O          O       0.97777   0.58383   0.24373
O          O       0.93940   0.68890   0.91040
O          O       0.27273   0.35557   0.57707
O          O       0.60607   0.02223   0.24373
O          O       0.74950   0.06060   0.91040
O          O       0.08283   0.72727   0.57707
O          O       0.41617   0.39393   0.24373
O          O       0.93940   0.25050   0.91040
O          O       0.27273   0.91717   0.57707
O          O       0.60607   0.58383   0.24373
O          O       0.74950   0.68890   0.91040
O          O       0.08283   0.35557   0.57707
O          O       0.41617   0.02223   0.24373
O          O       0.31110   0.06060   0.91040
O          O       0.64443   0.72727   0.57707
O          O       0.97777   0.39393   0.24373
O          O       0.68890   0.74950   0.08960
O          O       0.02223   0.41617   0.75627
O          O       0.35557   0.08283   0.42293
O          O       0.06060   0.31110   0.08960
O          O       0.39393   0.97777   0.75627
O          O       0.72727   0.64443   0.42293
O          O       0.25050   0.93940   0.08960
O          O       0.58383   0.60607   0.75627
O          O       0.91717   0.27273   0.42293
O          O       0.06060   0.74950   0.08960
O          O       0.39393   0.41617   0.75627
O          O       0.72727   0.08283   0.42293
O          O       0.25050   0.31110   0.08960
O          O       0.58383   0.97777   0.75627
O          O       0.91717   0.64443   0.42293
O          O       0.68890   0.93940   0.08960
O          O       0.02223   0.60607   0.75627
O          O       0.35557   0.27273   0.42293
O          O       0.35610   0.45450   0.92070
O          O       0.68943   0.12117   0.58737
O          O       0.02277   0.78783   0.25403
O          O       0.09840   0.64390   0.92070
O          O       0.43173   0.31057   0.58737
O          O       0.76507   0.97723   0.25403
O          O       0.54550   0.90160   0.92070
O          O       0.87883   0.56827   0.58737
O          O       0.21217   0.23493   0.25403
O          O       0.09840   0.45450   0.92070
O          O       0.43173   0.12117   0.58737
O          O       0.76507   0.78783   0.25403
O          O       0.54550   0.64390   0.92070
O          O       0.87883   0.31057   0.58737
O          O       0.21217   0.97723   0.25403
O          O       0.35610   0.90160   0.92070
O          O       0.68943   0.56827   0.58737
O          O       0.02277   0.23493   0.25403
O          O       0.64390   0.54550   0.07930
O          O       0.97723   0.21217   0.74597
O          O       0.31057   0.87883   0.41263
O          O       0.90160   0.35610   0.07930
O          O       0.23493   0.02277   0.74597
O          O       0.56827   0.68943   0.41263
O          O       0.45450   0.09840   0.07930
O          O       0.78783   0.76507   0.74597
O          O       0.12117   0.43173   0.41263
O          O       0.90160   0.54550   0.07930
O          O       0.23493   0.21217   0.74597
O          O       0.56827   0.87883   0.41263
O          O       0.45450   0.35610   0.07930
O          O       0.78783   0.02277   0.74597
O          O       0.12117   0.68943   0.41263
O          O       0.64390   0.09840   0.07930
O          O       0.97723   0.76507   0.74597
O          O       0.31057   0.43173   0.41263
O          O       0.14610   0.29220   0.92010
O          O       0.47943   0.95887   0.58677
O          O       0.81277   0.62553   0.25343
O          O       0.14610   0.85390   0.92010
O          O       0.47943   0.52057   0.58677
O          O       0.81277   0.18723   0.25343
O          O       0.70780   0.85390   0.92010
O          O       0.04113   0.52057   0.58677
O          O       0.37447   0.18723   0.25343
O          O       0.85390   0.70780   0.07990
O          O       0.18723   0.37447   0.74657
O          O       0.52057   0.04113   0.41323
O          O       0.85390   0.14610   0.07990
O          O       0.18723   0.81277   0.74657
O          O       0.52057   0.47943   0.41323
O          O       0.29220   0.14610   0.07990
O          O       0.62553   0.81277   0.74657
O          O       0.95887   0.47943   0.41323
O          O       0.27770   0.30850   0.96900
O          O       0.61103   0.97517   0.63567
O          O       0.94437   0.64183   0.30233
O          O       0.03080   0.72230   0.96900
O          O       0.36413   0.38897   0.63567
O          O       0.69747   0.05563   0.30233
O          O       0.69150   0.96920   0.96900
O          O       0.02483   0.63587   0.63567
O          O       0.35817   0.30253   0.30233
O          O       0.03080   0.30850   0.96900
O          O       0.36413   0.97517   0.63567
O          O       0.69747   0.64183   0.30233
O          O       0.69150   0.72230   0.96900
O          O       0.02483   0.38897   0.63567
O          O       0.35817   0.05563   0.30233
O          O       0.27770   0.96920   0.96900
O          O       0.61103   0.63587   0.63567
O          O       0.94437   0.30253   0.30233
O          O       0.72230   0.69150   0.03100
O          O       0.05563   0.35817   0.69767
O          O       0.38897   0.02483   0.36433
O          O       0.96920   0.27770   0.03100
O          O       0.30253   0.94437   0.69767
O          O       0.63587   0.61103   0.36433
O          O       0.30850   0.03080   0.03100
O          O       0.64183   0.69747   0.69767
O          O       0.97517   0.36413   0.36433
O          O       0.96920   0.69150   0.03100
O          O       0.30253   0.35817   0.69767
O          O       0.63587   0.02483   0.36433
O          O       0.30850   0.27770   0.03100
O          O       0.64183   0.94437   0.69767
O          O       0.97517   0.61103   0.36433
O          O       0.72230   0.03080   0.03100
O          O       0.05563   0.69747   0.69767
O          O       0.38897   0.36413   0.36433
O          O       0.85050   0.14960   0.85450
O          O       0.18383   0.81627   0.52117
O          O       0.51717   0.48293   0.18783
O          O       0.29910   0.14950   0.85450
O          O       0.63243   0.81617   0.52117
O          O       0.96577   0.48283   0.18783
O          O       0.85040   0.70090   0.85450
O          O       0.18373   0.36757   0.52117
O          O       0.51707   0.03423   0.18783
O          O       0.14950   0.85040   0.14550
O          O       0.48283   0.51707   0.81217
O          O       0.81617   0.18373   0.47883
O          O       0.70090   0.85050   0.14550
O          O       0.03423   0.51717   0.81217
O          O       0.36757   0.18383   0.47883
O          O       0.14960   0.29910   0.14550
O          O       0.48293   0.96577   0.81217
O          O       0.81627   0.63243   0.47883
O          O       0.93620   0.06380   0.89590
O          O       0.26953   0.73047   0.56257
O          O       0.60287   0.39713   0.22923
O          O       0.12760   0.06380   0.89590
O          O       0.46093   0.73047   0.56257
O          O       0.79427   0.39713   0.22923
O          O       0.93620   0.87240   0.89590
O          O       0.26953   0.53907   0.56257
O          O       0.60287   0.20573   0.22923
O          O       0.06380   0.93620   0.10410
O          O       0.39713   0.60287   0.77077
O          O       0.73047   0.26953   0.43743
O          O       0.87240   0.93620   0.10410
O          O       0.20573   0.60287   0.77077
O          O       0.53907   0.26953   0.43743
O          O       0.06380   0.12760   0.10410
O          O       0.39713   0.79427   0.77077
O          O       0.73047   0.46093   0.43743
O          O       0.82620   0.17390   0.79170
O          O       0.15953   0.84057   0.45837
O          O       0.49287   0.50723   0.12503
O          O       0.34770   0.17380   0.79170
O          O       0.68103   0.84047   0.45837
O          O       0.01437   0.50713   0.12503
O          O       0.82610   0.65230   0.79170
O          O       0.15943   0.31897   0.45837
O          O       0.49277   0.98563   0.12503
O          O       0.17380   0.82610   0.20830
O          O       0.50713   0.49277   0.87497
O          O       0.84047   0.15943   0.54163
O          O       0.65230   0.82620   0.20830
O          O       0.98563   0.49287   0.87497
O          O       0.31897   0.15953   0.54163
O          O       0.17390   0.34770   0.20830
O          O       0.50723   0.01437   0.87497
O          O       0.84057   0.68103   0.54163
O          O       0.85770   0.33330   0.83330
O          O       0.19103   0.99997   0.49997
O          O       0.52437   0.66663   0.16663
O          O       0.47560   0.14230   0.83330
O          O       0.80893   0.80897   0.49997
O          O       0.14227   0.47563   0.16663
O          O       0.66670   0.52440   0.83330
O          O       0.00003   0.19107   0.49997
O          O       0.33337   0.85773   0.16663
O          O       0.47560   0.33330   0.83330
O          O       0.80893   0.99997   0.49997
O          O       0.14227   0.66663   0.16663
O          O       0.66670   0.14230   0.83330
O          O       0.00003   0.80897   0.49997
O          O       0.33337   0.47563   0.16663
O          O       0.85770   0.52440   0.83330
O          O       0.19103   0.19107   0.49997
O          O       0.52437   0.85773   0.16663
O          O       0.93620   0.06370   0.79190
O          O       0.26953   0.73037   0.45857
O          O       0.60287   0.39703   0.12523
O          O       0.12750   0.06380   0.79190
O          O       0.46083   0.73047   0.45857
O          O       0.79417   0.39713   0.12523
O          O       0.93630   0.87250   0.79190
O          O       0.26963   0.53917   0.45857
O          O       0.60297   0.20583   0.12523
O          O       0.06380   0.93630   0.20810
O          O       0.39713   0.60297   0.87477
O          O       0.73047   0.26963   0.54143
O          O       0.87250   0.93620   0.20810
O          O       0.20583   0.60287   0.87477
O          O       0.53917   0.26953   0.54143
O          O       0.06370   0.12750   0.20810
O          O       0.39703   0.79417   0.87477
O          O       0.73037   0.46083   0.54143
O          O       0.89450   0.78900   0.99090
O          O       0.22783   0.45567   0.65757
O          O       0.56117   0.12233   0.32423
O          O       0.89450   0.10550   0.99090
O          O       0.22783   0.77217   0.65757
O          O       0.56117   0.43883   0.32423
O          O       0.21100   0.10550   0.99090
O          O       0.54433   0.77217   0.65757
O          O       0.87767   0.43883   0.32423
O          O       0.10550   0.21100   0.00910
O          O       0.43883   0.87767   0.67577
O          O       0.77217   0.54433   0.34243
O          O       0.10550   0.89450   0.00910
O          O       0.43883   0.56117   0.67577
O          O       0.77217   0.22783   0.34243
O          O       0.78900   0.89450   0.00910
O          O       0.12233   0.56117   0.67577
O          O       0.45567   0.22783   0.34243
O          O       0.00000   0.00000   0.84390
O          O       0.33333   0.66667   0.51057
O          O       0.66667   0.33333   0.17723
O          O       0.00000   0.00000   0.15610
O          O       0.33333   0.66667   0.82277
O          O       0.66667   0.33333   0.48943
