data_crystal

_cell_length_a    21.15900
_cell_length_b    21.99500
_cell_length_c    21.99500
_cell_angle_alpha 120.00000
_cell_angle_beta  90.00000
_cell_angle_gamma 90.00000

_space_group_name_Hall 'P 1'
_space_group_name_H-M_alt 'P 1'

loop_
_symmetry_equiv_pos_as_xyz
 'x,y,z'

loop_
_atom_site_label
_atom_site_type_symbol
_atom_site_fract_x
_atom_site_fract_y
_atom_site_fract_z
Si         Si      0.25510   0.92200   0.21270
Si         Si      0.25510   0.29070   0.07800
Si         Si      0.25510   0.78730   0.70930
Si         Si      0.25510   0.07800   0.78730
Si         Si      0.25510   0.70930   0.92200
Si         Si      0.25510   0.21270   0.29070
Si         Si      0.25510   0.29070   0.21270
Si         Si      0.25510   0.78730   0.07800
Si         Si      0.25510   0.92200   0.70930
Si         Si      0.25510   0.70930   0.78730
Si         Si      0.25510   0.21270   0.92200
Si         Si      0.25510   0.07800   0.29070
Si         Si      0.74490   0.07800   0.78730
Si         Si      0.74490   0.70930   0.92200
Si         Si      0.74490   0.21270   0.29070
Si         Si      0.74490   0.92200   0.21270
Si         Si      0.74490   0.29070   0.07800
Si         Si      0.74490   0.78730   0.70930
Si         Si      0.74490   0.70930   0.78730
Si         Si      0.74490   0.21270   0.92200
Si         Si      0.74490   0.07800   0.29070
Si         Si      0.74490   0.29070   0.21270
Si         Si      0.74490   0.78730   0.07800
Si         Si      0.74490   0.92200   0.70930
Si         Si      0.68560   0.28980   0.84900
Si         Si      0.68560   0.55920   0.71020
Si         Si      0.68560   0.15100   0.44080
Si         Si      0.68560   0.71020   0.15100
Si         Si      0.68560   0.44080   0.28980
Si         Si      0.68560   0.84900   0.55920
Si         Si      0.68560   0.55920   0.84900
Si         Si      0.68560   0.15100   0.71020
Si         Si      0.68560   0.28980   0.44080
Si         Si      0.68560   0.44080   0.15100
Si         Si      0.68560   0.84900   0.28980
Si         Si      0.68560   0.71020   0.55920
Si         Si      0.31440   0.71020   0.15100
Si         Si      0.31440   0.44080   0.28980
Si         Si      0.31440   0.84900   0.55920
Si         Si      0.31440   0.28980   0.84900
Si         Si      0.31440   0.55920   0.71020
Si         Si      0.31440   0.15100   0.44080
Si         Si      0.31440   0.44080   0.15100
Si         Si      0.31440   0.84900   0.28980
Si         Si      0.31440   0.71020   0.55920
Si         Si      0.31440   0.55920   0.84900
Si         Si      0.31440   0.15100   0.71020
Si         Si      0.31440   0.28980   0.44080
Si         Si      0.20250   0.91920   0.38950
Si         Si      0.20250   0.47030   0.08080
Si         Si      0.20250   0.61050   0.52970
Si         Si      0.20250   0.08080   0.61050
Si         Si      0.20250   0.52970   0.91920
Si         Si      0.20250   0.38950   0.47030
Si         Si      0.20250   0.47030   0.38950
Si         Si      0.20250   0.61050   0.08080
Si         Si      0.20250   0.91920   0.52970
Si         Si      0.20250   0.52970   0.61050
Si         Si      0.20250   0.38950   0.91920
Si         Si      0.20250   0.08080   0.47030
Si         Si      0.79750   0.08080   0.61050
Si         Si      0.79750   0.52970   0.91920
Si         Si      0.79750   0.38950   0.47030
Si         Si      0.79750   0.91920   0.38950
Si         Si      0.79750   0.47030   0.08080
Si         Si      0.79750   0.61050   0.52970
Si         Si      0.79750   0.52970   0.61050
Si         Si      0.79750   0.38950   0.91920
Si         Si      0.79750   0.08080   0.47030
Si         Si      0.79750   0.47030   0.38950
Si         Si      0.79750   0.61050   0.08080
Si         Si      0.79750   0.91920   0.52970
Si         Si      0.42750   0.92030   0.38920
Si         Si      0.42750   0.46890   0.07970
Si         Si      0.42750   0.61080   0.53110
Si         Si      0.42750   0.07970   0.61080
Si         Si      0.42750   0.53110   0.92030
Si         Si      0.42750   0.38920   0.46890
Si         Si      0.42750   0.46890   0.38920
Si         Si      0.42750   0.61080   0.07970
Si         Si      0.42750   0.92030   0.53110
Si         Si      0.42750   0.53110   0.61080
Si         Si      0.42750   0.38920   0.92030
Si         Si      0.42750   0.07970   0.46890
Si         Si      0.57250   0.07970   0.61080
Si         Si      0.57250   0.53110   0.92030
Si         Si      0.57250   0.38920   0.46890
Si         Si      0.57250   0.92030   0.38920
Si         Si      0.57250   0.46890   0.07970
Si         Si      0.57250   0.61080   0.53110
Si         Si      0.57250   0.53110   0.61080
Si         Si      0.57250   0.38920   0.92030
Si         Si      0.57250   0.07970   0.46890
Si         Si      0.57250   0.46890   0.38920
Si         Si      0.57250   0.61080   0.07970
Si         Si      0.57250   0.92030   0.53110
Si         Si      0.86840   0.25650   0.88180
Si         Si      0.86840   0.62530   0.74350
Si         Si      0.86840   0.11820   0.37470
Si         Si      0.86840   0.74350   0.11820
Si         Si      0.86840   0.37470   0.25650
Si         Si      0.86840   0.88180   0.62530
Si         Si      0.86840   0.62530   0.88180
Si         Si      0.86840   0.11820   0.74350
Si         Si      0.86840   0.25650   0.37470
Si         Si      0.86840   0.37470   0.11820
Si         Si      0.86840   0.88180   0.25650
Si         Si      0.86840   0.74350   0.62530
Si         Si      0.13160   0.74350   0.11820
Si         Si      0.13160   0.37470   0.25650
Si         Si      0.13160   0.88180   0.62530
Si         Si      0.13160   0.25650   0.88180
Si         Si      0.13160   0.62530   0.74350
Si         Si      0.13160   0.11820   0.37470
Si         Si      0.13160   0.37470   0.11820
Si         Si      0.13160   0.88180   0.25650
Si         Si      0.13160   0.74350   0.62530
Si         Si      0.13160   0.62530   0.88180
Si         Si      0.13160   0.11820   0.74350
Si         Si      0.13160   0.25650   0.37470
Si         Si      0.00000   0.92090   0.21740
Si         Si      0.00000   0.29650   0.07910
Si         Si      0.00000   0.78260   0.70350
Si         Si      1.00000   0.07910   0.78260
Si         Si      0.00000   0.70350   0.92090
Si         Si      1.00000   0.21740   0.29650
Si         Si      1.00000   0.29650   0.21740
Si         Si      0.00000   0.78260   0.07910
Si         Si      0.00000   0.92090   0.70350
Si         Si      1.00000   0.70350   0.78260
Si         Si      0.00000   0.21740   0.92090
Si         Si      1.00000   0.07910   0.29650
O          O       0.25960   0.87100   0.12890
O          O       0.25960   0.25790   0.12900
O          O       0.25960   0.87110   0.74210
O          O       0.25960   0.12900   0.87110
O          O       0.25960   0.74210   0.87100
O          O       0.25960   0.12890   0.25790
O          O       0.74040   0.12900   0.87110
O          O       0.74040   0.74210   0.87100
O          O       0.74040   0.12890   0.25790
O          O       0.74040   0.87100   0.12890
O          O       0.74040   0.25790   0.12900
O          O       0.74040   0.87110   0.74210
O          O       0.30120   0.89330   0.25100
O          O       0.30120   0.35770   0.10670
O          O       0.30120   0.74900   0.64230
O          O       0.30120   0.10670   0.74900
O          O       0.30120   0.64230   0.89330
O          O       0.30120   0.25100   0.35770
O          O       0.30120   0.35770   0.25100
O          O       0.30120   0.74900   0.10670
O          O       0.30120   0.89330   0.64230
O          O       0.30120   0.64230   0.74900
O          O       0.30120   0.25100   0.89330
O          O       0.30120   0.10670   0.35770
O          O       0.69880   0.10670   0.74900
O          O       0.69880   0.64230   0.89330
O          O       0.69880   0.25100   0.35770
O          O       0.69880   0.89330   0.25100
O          O       0.69880   0.35770   0.10670
O          O       0.69880   0.74900   0.64230
O          O       0.69880   0.64230   0.74900
O          O       0.69880   0.25100   0.89330
O          O       0.69880   0.10670   0.35770
O          O       0.69880   0.35770   0.25100
O          O       0.69880   0.74900   0.10670
O          O       0.69880   0.89330   0.64230
O          O       0.27640   1.00000   0.23240
O          O       0.27640   0.23240   0.00000
O          O       0.27640   0.76760   0.76760
O          O       0.27640   1.00000   0.76760
O          O       0.27640   0.76760   0.00000
O          O       0.27640   0.23240   0.23240
O          O       0.72360   1.00000   0.76760
O          O       0.72360   0.76760   0.00000
O          O       0.72360   0.23240   0.23240
O          O       0.72360   1.00000   0.23240
O          O       0.72360   0.23240   0.00000
O          O       0.72360   0.76760   0.76760
O          O       0.18340   0.92360   0.23780
O          O       0.18340   0.31420   0.07640
O          O       0.18340   0.76220   0.68580
O          O       0.18340   0.07640   0.76220
O          O       0.18340   0.68580   0.92360
O          O       0.18340   0.23780   0.31420
O          O       0.18340   0.31420   0.23780
O          O       0.18340   0.76220   0.07640
O          O       0.18340   0.92360   0.68580
O          O       0.18340   0.68580   0.76220
O          O       0.18340   0.23780   0.92360
O          O       0.18340   0.07640   0.31420
O          O       0.81660   0.07640   0.76220
O          O       0.81660   0.68580   0.92360
O          O       0.81660   0.23780   0.31420
O          O       0.81660   0.92360   0.23780
O          O       0.81660   0.31420   0.07640
O          O       0.81660   0.76220   0.68580
O          O       0.81660   0.68580   0.76220
O          O       0.81660   0.23780   0.92360
O          O       0.81660   0.07640   0.31420
O          O       0.81660   0.31420   0.23780
O          O       0.81660   0.76220   0.07640
O          O       0.81660   0.92360   0.68580
O          O       0.73720   0.35100   0.87000
O          O       0.73720   0.51900   0.64900
O          O       0.73720   0.13000   0.48100
O          O       0.73720   0.64900   0.13000
O          O       0.73720   0.48100   0.35100
O          O       0.73720   0.87000   0.51900
O          O       0.73720   0.51900   0.87000
O          O       0.73720   0.13000   0.64900
O          O       0.73720   0.35100   0.48100
O          O       0.73720   0.48100   0.13000
O          O       0.73720   0.87000   0.35100
O          O       0.73720   0.64900   0.51900
O          O       0.26280   0.64900   0.13000
O          O       0.26280   0.48100   0.35100
O          O       0.26280   0.87000   0.51900
O          O       0.26280   0.35100   0.87000
O          O       0.26280   0.51900   0.64900
O          O       0.26280   0.13000   0.48100
O          O       0.26280   0.48100   0.13000
O          O       0.26280   0.87000   0.35100
O          O       0.26280   0.64900   0.51900
O          O       0.26280   0.51900   0.87000
O          O       0.26280   0.13000   0.64900
O          O       0.26280   0.35100   0.48100
O          O       0.61590   0.32380   0.86750
O          O       0.61590   0.54370   0.67620
O          O       0.61590   0.13250   0.45630
O          O       0.61590   0.67620   0.13250
O          O       0.61590   0.45630   0.32380
O          O       0.61590   0.86750   0.54370
O          O       0.61590   0.54370   0.86750
O          O       0.61590   0.13250   0.67620
O          O       0.61590   0.32380   0.45630
O          O       0.61590   0.45630   0.13250
O          O       0.61590   0.86750   0.32380
O          O       0.61590   0.67620   0.54370
O          O       0.38410   0.67620   0.13250
O          O       0.38410   0.45630   0.32380
O          O       0.38410   0.86750   0.54370
O          O       0.38410   0.32380   0.86750
O          O       0.38410   0.54370   0.67620
O          O       0.38410   0.13250   0.45630
O          O       0.38410   0.45630   0.13250
O          O       0.38410   0.86750   0.32380
O          O       0.38410   0.67620   0.54370
O          O       0.38410   0.54370   0.86750
O          O       0.38410   0.13250   0.67620
O          O       0.38410   0.32380   0.45630
O          O       0.69030   0.23360   0.76640
O          O       0.69030   0.53280   0.76640
O          O       0.69030   0.23360   0.46720
O          O       0.69030   0.76640   0.23360
O          O       0.69030   0.46720   0.23360
O          O       0.69030   0.76640   0.53280
O          O       0.30970   0.76640   0.23360
O          O       0.30970   0.46720   0.23360
O          O       0.30970   0.76640   0.53280
O          O       0.30970   0.23360   0.76640
O          O       0.30970   0.53280   0.76640
O          O       0.30970   0.23360   0.46720
O          O       0.14480   0.89580   0.33460
O          O       0.14480   0.43880   0.10420
O          O       0.14480   0.66540   0.56120
O          O       0.14480   0.10420   0.66540
O          O       0.14480   0.56120   0.89580
O          O       0.14480   0.33460   0.43880
O          O       0.14480   0.43880   0.33460
O          O       0.14480   0.66540   0.10420
O          O       0.14480   0.89580   0.56120
O          O       0.14480   0.56120   0.66540
O          O       0.14480   0.33460   0.89580
O          O       0.14480   0.10420   0.43880
O          O       0.85520   0.10420   0.66540
O          O       0.85520   0.56120   0.89580
O          O       0.85520   0.33460   0.43880
O          O       0.85520   0.89580   0.33460
O          O       0.85520   0.43880   0.10420
O          O       0.85520   0.66540   0.56120
O          O       0.85520   0.56120   0.66540
O          O       0.85520   0.33460   0.89580
O          O       0.85520   0.10420   0.43880
O          O       0.85520   0.43880   0.33460
O          O       0.85520   0.66540   0.10420
O          O       0.85520   0.89580   0.56120
O          O       0.22010   1.00000   0.41680
O          O       0.22010   0.41680   1.00000
O          O       0.22010   0.58320   0.58320
O          O       0.22010   0.00000   0.58320
O          O       0.22010   0.58320   1.00000
O          O       0.22010   0.41680   0.41680
O          O       0.77990   0.00000   0.58320
O          O       0.77990   0.58320   1.00000
O          O       0.77990   0.41680   0.41680
O          O       0.77990   1.00000   0.41680
O          O       0.77990   0.41680   1.00000
O          O       0.77990   0.58320   0.58320
O          O       0.18220   0.91030   0.45520
O          O       0.18220   0.54490   0.08970
O          O       0.18220   0.54480   0.45510
O          O       0.18220   0.08970   0.54480
O          O       0.18220   0.45510   0.91030
O          O       0.18220   0.45520   0.54490
O          O       0.81780   0.08970   0.54480
O          O       0.81780   0.45510   0.91030
O          O       0.81780   0.45520   0.54490
O          O       0.81780   0.91030   0.45520
O          O       0.81780   0.54490   0.08970
O          O       0.81780   0.54480   0.45510
O          O       0.50000   0.91250   0.36410
O          O       0.50000   0.45160   0.08750
O          O       0.50000   0.63590   0.54840
O          O       0.50000   0.08750   0.63590
O          O       0.50000   0.54840   0.91250
O          O       0.50000   0.36410   0.45160
O          O       0.50000   0.45160   0.36410
O          O       0.50000   0.63590   0.08750
O          O       0.50000   0.91250   0.54840
O          O       0.50000   0.54840   0.63590
O          O       0.50000   0.36410   0.91250
O          O       0.50000   0.08750   0.45160
O          O       0.42170   0.90080   0.45040
O          O       0.42170   0.54960   0.09920
O          O       0.42170   0.54960   0.45040
O          O       0.42170   0.09920   0.54960
O          O       0.42170   0.45040   0.90080
O          O       0.42170   0.45040   0.54960
O          O       0.57830   0.09920   0.54960
O          O       0.57830   0.45040   0.90080
O          O       0.57830   0.45040   0.54960
O          O       0.57830   0.90080   0.45040
O          O       0.57830   0.54960   0.09920
O          O       0.57830   0.54960   0.45040
O          O       0.40460   0.00000   0.41850
O          O       0.40460   0.41850   0.00000
O          O       0.40460   0.58150   0.58150
O          O       0.40460   1.00000   0.58150
O          O       0.40460   0.58150   1.00000
O          O       0.40460   0.41850   0.41850
O          O       0.59540   1.00000   0.58150
O          O       0.59540   0.58150   1.00000
O          O       0.59540   0.41850   0.41850
O          O       0.59540   0.00000   0.41850
O          O       0.59540   0.41850   0.00000
O          O       0.59540   0.58150   0.58150
O          O       0.86310   0.20100   0.79910
O          O       0.86310   0.59810   0.79900
O          O       0.86310   0.20090   0.40190
O          O       0.86310   0.79900   0.20090
O          O       0.86310   0.40190   0.20100
O          O       0.86310   0.79910   0.59810
O          O       0.13690   0.79900   0.20090
O          O       0.13690   0.40190   0.20100
O          O       0.13690   0.79910   0.59810
O          O       0.13690   0.20100   0.79910
O          O       0.13690   0.59810   0.79900
O          O       0.13690   0.20090   0.40190
O          O       0.93800   0.25270   0.90920
O          O       0.93800   0.65650   0.74730
O          O       0.93800   0.09080   0.34350
O          O       0.93800   0.74730   0.09080
O          O       0.93800   0.34350   0.25270
O          O       0.93800   0.90920   0.65650
O          O       0.93800   0.65650   0.90920
O          O       0.93800   0.09080   0.74730
O          O       0.93800   0.25270   0.34350
O          O       0.93800   0.34350   0.09080
O          O       0.93800   0.90920   0.25270
O          O       0.93800   0.74730   0.65650
O          O       0.06200   0.74730   0.09080
O          O       0.06200   0.34350   0.25270
O          O       0.06200   0.90920   0.65650
O          O       0.06200   0.25270   0.90920
O          O       0.06200   0.65650   0.74730
O          O       0.06200   0.09080   0.34350
O          O       0.06200   0.34350   0.09080
O          O       0.06200   0.90920   0.25270
O          O       0.06200   0.74730   0.65650
O          O       0.06200   0.65650   0.90920
O          O       0.06200   0.09080   0.74730
O          O       0.06200   0.25270   0.34350
O          O       0.00000   0.00000   0.23100
O          O       0.00000   0.23100   0.00000
O          O       1.00000   0.76900   0.76900
O          O       0.00000   0.00000   0.76900
O          O       0.00000   0.76900   0.00000
O          O       1.00000   0.23100   0.23100
O          O       0.00000   0.86570   0.13430
O          O       1.00000   0.26860   0.13430
O          O       0.00000   0.86570   0.73140
O          O       1.00000   0.13430   0.86570
O          O       1.00000   0.73140   0.86570
O          O       1.00000   0.13430   0.26860
