data_crystal

_cell_length_a    11.49900
_cell_length_b    14.19000
_cell_length_c    14.19000
_cell_angle_alpha 120.00000
_cell_angle_beta  90.00000
_cell_angle_gamma 90.00000

_space_group_name_Hall 'P 1'
_space_group_name_H-M_alt 'P 1'

loop_
_symmetry_equiv_pos_as_xyz
 'x,y,z'

loop_
_atom_site_label
_atom_site_type_symbol
_atom_site_fract_x
_atom_site_fract_y
_atom_site_fract_z
Si         Si      0.77540   0.58270   0.79140
Si         Si      0.77540   0.20870   0.41730
Si         Si      0.77540   0.20860   0.79130
Si         Si      0.77540   0.41730   0.20860
Si         Si      0.77540   0.79130   0.58270
Si         Si      0.77540   0.79140   0.20870
Si         Si      0.22460   0.41730   0.20860
Si         Si      0.22460   0.79130   0.58270
Si         Si      0.22460   0.79140   0.20870
Si         Si      0.22460   0.58270   0.79140
Si         Si      0.22460   0.20870   0.41730
Si         Si      0.22460   0.20860   0.79130
Si         Si      0.63710   0.61190   0.61190
Si         Si      0.63710   1.00000   0.38810
Si         Si      0.63710   0.38810   0.00000
Si         Si      0.63710   0.38810   0.38810
Si         Si      0.63710   0.00000   0.61190
Si         Si      0.63710   0.61190   0.00000
Si         Si      0.36290   0.38810   0.38810
Si         Si      0.36290   0.00000   0.61190
Si         Si      0.36290   0.61190   0.00000
Si         Si      0.36290   0.61190   0.61190
Si         Si      0.36290   1.00000   0.38810
Si         Si      0.36290   0.38810   0.00000
Si         Si      0.00000   0.73910   0.86950
Si         Si      1.00000   0.13040   0.26090
Si         Si      0.00000   0.13050   0.86960
Si         Si      0.00000   0.26090   0.13050
Si         Si      0.00000   0.86960   0.73910
Si         Si      0.00000   0.86950   0.13040
Si         Si      0.86020   0.66667   0.33333
Si         Si      0.86020   0.33333   0.66667
Si         Si      0.13980   0.33333   0.66667
Si         Si      0.13980   0.66667   0.33333
O          O       0.69650   0.60480   0.89410
O          O       0.69650   0.28930   0.39520
O          O       0.69650   0.10590   0.71070
O          O       0.69650   0.39520   0.10590
O          O       0.69650   0.71070   0.60480
O          O       0.69650   0.89410   0.28930
O          O       0.69650   0.28930   0.89410
O          O       0.69650   0.10590   0.39520
O          O       0.69650   0.60480   0.71070
O          O       0.69650   0.71070   0.10590
O          O       0.69650   0.89410   0.60480
O          O       0.69650   0.39520   0.28930
O          O       0.30350   0.39520   0.10590
O          O       0.30350   0.71070   0.60480
O          O       0.30350   0.89410   0.28930
O          O       0.30350   0.60480   0.89410
O          O       0.30350   0.28930   0.39520
O          O       0.30350   0.10590   0.71070
O          O       0.30350   0.71070   0.10590
O          O       0.30350   0.89410   0.60480
O          O       0.30350   0.39520   0.28930
O          O       0.30350   0.28930   0.89410
O          O       0.30350   0.10590   0.39520
O          O       0.30350   0.60480   0.71070
O          O       0.88600   0.66280   0.83140
O          O       0.88600   0.16860   0.33720
O          O       0.88600   0.16860   0.83140
O          O       0.88600   0.33720   0.16860
O          O       0.88600   0.83140   0.66280
O          O       0.88600   0.83140   0.16860
O          O       0.11400   0.33720   0.16860
O          O       0.11400   0.83140   0.66280
O          O       0.11400   0.83140   0.16860
O          O       0.11400   0.66280   0.83140
O          O       0.11400   0.16860   0.33720
O          O       0.11400   0.16860   0.83140
O          O       0.81510   0.45730   0.72870
O          O       0.81510   0.27140   0.54270
O          O       0.81510   0.27130   0.72860
O          O       0.81510   0.54270   0.27130
O          O       0.81510   0.72860   0.45730
O          O       0.81510   0.72870   0.27140
O          O       0.18490   0.54270   0.27130
O          O       0.18490   0.72860   0.45730
O          O       0.18490   0.72870   0.27140
O          O       0.18490   0.45730   0.72870
O          O       0.18490   0.27140   0.54270
O          O       0.18490   0.27130   0.72860
O          O       0.50000   0.63410   0.63410
O          O       0.50000   0.00000   0.36590
O          O       0.50000   0.36590   0.00000
O          O       0.50000   0.36590   0.36590
O          O       0.50000   0.00000   0.63410
O          O       0.50000   0.63410   0.00000
O          O       0.65860   0.50000   0.50000
O          O       0.65860   1.00000   0.50000
O          O       0.65860   0.50000   0.00000
O          O       0.34140   0.50000   0.50000
O          O       0.34140   1.00000   0.50000
O          O       0.34140   0.50000   0.00000
O          O       1.00000   0.81460   0.81460
O          O       0.00000   1.00000   0.18540
O          O       0.00000   0.18540   0.00000
O          O       1.00000   0.18540   0.18540
O          O       0.00000   1.00000   0.81460
O          O       0.00000   0.81460   0.00000
O          O       0.00000   0.66667   0.33333
O          O       1.00000   0.33333   0.66667
