data_crystal

_cell_length_a    8.46900
_cell_length_b    15.02294
_cell_length_c    15.02294
_cell_angle_alpha 102.09071
_cell_angle_beta  90.00000
_cell_angle_gamma 90.00000

_space_group_name_Hall 'P 1'
_space_group_name_H-M_alt 'P 1'

loop_
_symmetry_equiv_pos_as_xyz
 'x,y,z'

loop_
_atom_site_label
_atom_site_type_symbol
_atom_site_fract_x
_atom_site_fract_y
_atom_site_fract_z
O          O       0.54940   0.18670   0.81330
O          O       0.04940   0.81330   0.18670
O          O       0.45060   0.81330   0.18670
O          O       0.95060   0.18670   0.81330
O          O       0.45900   0.20870   0.65210
O          O       0.45900   0.34790   0.79130
O          O       0.95900   0.65210   0.20870
O          O       0.95900   0.79130   0.34790
O          O       0.54100   0.79130   0.34790
O          O       0.54100   0.65210   0.20870
O          O       0.04100   0.34790   0.79130
O          O       0.04100   0.20870   0.65210
O          O       0.25000   0.21710   0.78290
O          O       0.75000   0.78290   0.21710
O          O       0.51850   0.83790   0.02310
O          O       0.51850   0.97690   0.16210
O          O       0.01850   0.02310   0.83790
O          O       0.01850   0.16210   0.97690
O          O       0.48150   0.16210   0.97690
O          O       0.48150   0.02310   0.83790
O          O       0.98150   0.97690   0.16210
O          O       0.98150   0.83790   0.02310
O          O       0.47810   0.69170   0.89430
O          O       0.47810   0.10570   0.30830
O          O       0.97810   0.89430   0.69170
O          O       0.97810   0.30830   0.10570
O          O       0.52190   0.30830   0.10570
O          O       0.52190   0.89430   0.69170
O          O       0.02190   0.10570   0.30830
O          O       0.02190   0.69170   0.89430
O          O       0.50000   0.85210   0.85210
O          O       0.50000   0.14790   0.14790
O          O       1.00000   0.85210   0.85210
O          O       0.00000   0.14790   0.14790
O          O       0.75000   0.77720   0.90980
O          O       0.75000   0.09020   0.22280
O          O       0.25000   0.90980   0.77720
O          O       0.25000   0.22280   0.09020
O          O       0.75000   0.38630   0.84570
O          O       0.75000   0.15430   0.61370
O          O       0.25000   0.84570   0.38630
O          O       0.25000   0.61370   0.15430
O          O       0.52390   0.38860   0.96600
O          O       0.52390   0.03400   0.61140
O          O       0.02390   0.96600   0.38860
O          O       0.02390   0.61140   0.03400
O          O       0.47610   0.61140   0.03400
O          O       0.47610   0.96600   0.38860
O          O       0.97610   0.03400   0.61140
O          O       0.97610   0.38860   0.96600
O          O       0.53610   0.51610   0.86990
O          O       0.53610   0.13010   0.48390
O          O       0.03610   0.86990   0.51610
O          O       0.03610   0.48390   0.13010
O          O       0.46390   0.48390   0.13010
O          O       0.46390   0.86990   0.51610
O          O       0.96390   0.13010   0.48390
O          O       0.96390   0.51610   0.86990
O          O       0.25000   0.57760   0.91140
O          O       0.25000   0.08860   0.42240
O          O       0.75000   0.91140   0.57760
O          O       0.75000   0.42240   0.08860
O          O       0.75000   0.10060   0.89940
O          O       0.25000   0.89940   0.10060
Si         Si      0.56720   0.41010   0.86830
Si         Si      0.56720   0.13170   0.58990
Si         Si      0.06720   0.86830   0.41010
Si         Si      0.06720   0.58990   0.13170
Si         Si      0.43280   0.58990   0.13170
Si         Si      0.43280   0.86830   0.41010
Si         Si      0.93280   0.13170   0.58990
Si         Si      0.93280   0.41010   0.86830
Si         Si      0.43500   0.59950   0.92750
Si         Si      0.43500   0.07250   0.40050
Si         Si      0.93500   0.92750   0.59950
Si         Si      0.93500   0.40050   0.07250
Si         Si      0.56500   0.40050   0.07250
Si         Si      0.56500   0.92750   0.59950
Si         Si      0.06500   0.07250   0.40050
Si         Si      0.06500   0.59950   0.92750
Si         Si      0.56190   0.78990   0.91990
Si         Si      0.56190   0.08010   0.21010
Si         Si      0.06190   0.91990   0.78990
Si         Si      0.06190   0.21010   0.08010
Si         Si      0.43810   0.21010   0.08010
Si         Si      0.43810   0.91990   0.78990
Si         Si      0.93810   0.08010   0.21010
Si         Si      0.93810   0.78990   0.91990
Si         Si      0.42930   0.24010   0.75990
Si         Si      0.92930   0.75990   0.24010
Si         Si      0.57070   0.75990   0.24010
Si         Si      0.07070   0.24010   0.75990
Si         Si      0.56620   0.11800   0.88200
Si         Si      0.06620   0.88200   0.11800
Si         Si      0.43380   0.88200   0.11800
Si         Si      0.93380   0.11800   0.88200
