data_crystal

_cell_length_a    13.17800
_cell_length_b    13.17800
_cell_length_c    15.00500
_cell_angle_alpha 90.00000
_cell_angle_beta  90.00000
_cell_angle_gamma 120.00000

_space_group_name_Hall 'P 1'
_space_group_name_H-M_alt 'P 1'

loop_
_symmetry_equiv_pos_as_xyz
 'x,y,z'

loop_
_atom_site_label
_atom_site_type_symbol
_atom_site_fract_x
_atom_site_fract_y
_atom_site_fract_z
Si         Si      0.56550   0.66650   0.85260
Si         Si      0.10100   0.43450   0.85260
Si         Si      0.33350   0.89900   0.85260
Si         Si      0.43450   0.33350   0.35260
Si         Si      0.89900   0.56550   0.35260
Si         Si      0.66650   0.10100   0.35260
Si         Si      0.10100   0.66650   0.85260
Si         Si      0.33350   0.43450   0.85260
Si         Si      0.56550   0.89900   0.85260
Si         Si      0.89900   0.33350   0.35260
Si         Si      0.66650   0.56550   0.35260
Si         Si      0.43450   0.10100   0.35260
Si         Si      0.43450   0.33350   0.14740
Si         Si      0.89900   0.56550   0.14740
Si         Si      0.66650   0.10100   0.14740
Si         Si      0.56550   0.66650   0.64740
Si         Si      0.10100   0.43450   0.64740
Si         Si      0.33350   0.89900   0.64740
Si         Si      0.89900   0.33350   0.14740
Si         Si      0.66650   0.56550   0.14740
Si         Si      0.43450   0.10100   0.14740
Si         Si      0.10100   0.66650   0.64740
Si         Si      0.33350   0.43450   0.64740
Si         Si      0.56550   0.89900   0.64740
Si         Si      0.76070   0.76070   0.00000
Si         Si      1.00000   0.23930   0.00000
Si         Si      0.23930   0.00000   0.00000
Si         Si      0.23930   0.23930   0.50000
Si         Si      1.00000   0.76070   0.50000
Si         Si      0.76070   0.00000   0.50000
Si         Si      1.00000   0.76070   0.00000
Si         Si      0.23930   0.23930   0.00000
Si         Si      0.76070   0.00000   0.00000
Si         Si      1.00000   0.23930   0.50000
Si         Si      0.76070   0.76070   0.50000
Si         Si      0.23930   0.00000   0.50000
O          O       0.67830   0.70210   0.91430
O          O       0.02380   0.32170   0.91430
O          O       0.29790   0.97620   0.91430
O          O       0.32170   0.29790   0.41430
O          O       0.97620   0.67830   0.41430
O          O       0.70210   0.02380   0.41430
O          O       0.02380   0.70210   0.91430
O          O       0.29790   0.32170   0.91430
O          O       0.67830   0.97620   0.91430
O          O       0.97620   0.29790   0.41430
O          O       0.70210   0.67830   0.41430
O          O       0.32170   0.02380   0.41430
O          O       0.32170   0.29790   0.08570
O          O       0.97620   0.67830   0.08570
O          O       0.70210   0.02380   0.08570
O          O       0.67830   0.70210   0.58570
O          O       0.02380   0.32170   0.58570
O          O       0.29790   0.97620   0.58570
O          O       0.97620   0.29790   0.08570
O          O       0.70210   0.67830   0.08570
O          O       0.32170   0.02380   0.08570
O          O       0.02380   0.70210   0.58570
O          O       0.29790   0.32170   0.58570
O          O       0.67830   0.97620   0.58570
O          O       0.52460   0.76230   0.86380
O          O       0.23770   0.47540   0.86380
O          O       0.23770   0.76230   0.86380
O          O       0.47540   0.23770   0.36380
O          O       0.76230   0.52460   0.36380
O          O       0.76230   0.23770   0.36380
O          O       0.47540   0.23770   0.13620
O          O       0.76230   0.52460   0.13620
O          O       0.76230   0.23770   0.13620
O          O       0.52460   0.76230   0.63620
O          O       0.23770   0.47540   0.63620
O          O       0.23770   0.76230   0.63620
O          O       0.59860   0.66190   0.75000
O          O       0.06330   0.40140   0.75000
O          O       0.33810   0.93670   0.75000
O          O       0.40140   0.33810   0.25000
O          O       0.93670   0.59860   0.25000
O          O       0.66190   0.06330   0.25000
O          O       0.06330   0.66190   0.75000
O          O       0.33810   0.40140   0.75000
O          O       0.59860   0.93670   0.75000
O          O       0.93670   0.33810   0.25000
O          O       0.66190   0.59860   0.25000
O          O       0.40140   0.06330   0.25000
O          O       0.46030   0.53970   0.88210
O          O       0.07940   0.53970   0.88210
O          O       0.46030   0.92060   0.88210
O          O       0.53970   0.46030   0.38210
O          O       0.92060   0.46030   0.38210
O          O       0.53970   0.07940   0.38210
O          O       0.53970   0.46030   0.11790
O          O       0.92060   0.46030   0.11790
O          O       0.53970   0.07940   0.11790
O          O       0.46030   0.53970   0.61790
O          O       0.07940   0.53970   0.61790
O          O       0.46030   0.92060   0.61790
O          O       0.88750   0.77500   0.98150
O          O       0.88750   0.11250   0.98150
O          O       0.22500   0.11250   0.98150
O          O       0.11250   0.22500   0.48150
O          O       0.11250   0.88750   0.48150
O          O       0.77500   0.88750   0.48150
O          O       0.11250   0.22500   0.01850
O          O       0.11250   0.88750   0.01850
O          O       0.77500   0.88750   0.01850
O          O       0.88750   0.77500   0.51850
O          O       0.88750   0.11250   0.51850
O          O       0.22500   0.11250   0.51850
