data_crystal

_cell_length_a    6.41000
_cell_length_b    6.92600
_cell_length_c    6.92600
_cell_angle_alpha 90.00000
_cell_angle_beta  90.00000
_cell_angle_gamma 90.00000

_space_group_name_Hall 'P 1'
_space_group_name_H-M_alt 'P 1'

loop_
_symmetry_equiv_pos_as_xyz
 'x,y,z'

loop_
_atom_site_label
_atom_site_type_symbol
_atom_site_fract_x
_atom_site_fract_y
_atom_site_fract_z
Si         Si      0.11840   0.26790   0.00000
Si         Si      0.88160   1.00000   0.26790
Si         Si      0.11840   0.73210   0.00000
Si         Si      0.88160   0.00000   0.73210
Si         Si      0.50000   0.00000   0.00000
O          O       0.35500   0.18980   0.00000
O          O       0.64500   1.00000   0.18980
O          O       0.35500   0.81020   0.00000
O          O       0.64500   0.00000   0.81020
O          O       0.00000   0.18970   0.18970
O          O       0.00000   0.81030   0.18970
O          O       0.00000   0.81030   0.81030
O          O       0.00000   0.18970   0.81030
O          O       0.11830   0.50000   0.00000
O          O       0.88170   0.00000   0.50000
