data_crystal

_cell_length_a    13.21180
_cell_length_b    13.21180
_cell_length_c    19.17193
_cell_angle_alpha 100.95517
_cell_angle_beta  100.95517
_cell_angle_gamma 116.64462

_space_group_name_Hall 'P 1'
_space_group_name_H-M_alt 'P 1'

loop_
_symmetry_equiv_pos_as_xyz
 'x,y,z'

loop_
_atom_site_label
_atom_site_type_symbol
_atom_site_fract_x
_atom_site_fract_y
_atom_site_fract_z
O          O       0.73230   0.01310   0.22200
O          O       0.79110   0.51030   0.77800
O          O       0.48970   0.20890   0.22200
O          O       0.98690   0.26770   0.77800
O          O       0.26770   0.98690   0.77800
O          O       0.20890   0.48970   0.22200
O          O       0.51030   0.79110   0.77800
O          O       0.01310   0.73230   0.22200
O          O       0.68230   0.79810   0.14340
O          O       0.65470   0.53890   0.85660
O          O       0.46110   0.34530   0.14340
O          O       0.20190   0.31770   0.85660
O          O       0.31770   0.20190   0.85660
O          O       0.34530   0.46110   0.14340
O          O       0.53890   0.65470   0.85660
O          O       0.79810   0.68230   0.14340
O          O       0.63720   0.93520   0.07380
O          O       0.86140   0.56340   0.92620
O          O       0.43660   0.13860   0.07380
O          O       0.06480   0.36280   0.92620
O          O       0.36280   0.06480   0.92620
O          O       0.13860   0.43660   0.07380
O          O       0.56340   0.86140   0.92620
O          O       0.93520   0.63720   0.07380
O          O       0.51350   0.83690   0.15900
O          O       0.67790   0.35450   0.84100
O          O       0.64550   0.32210   0.15900
O          O       0.16310   0.48650   0.84100
O          O       0.48650   0.16310   0.84100
O          O       0.32210   0.64550   0.15900
O          O       0.35450   0.67790   0.84100
O          O       0.83690   0.51350   0.15900
O          O       0.60310   0.27890   0.36800
O          O       0.91090   0.23510   0.63200
O          O       0.76490   0.08910   0.36800
O          O       0.72110   0.39690   0.63200
O          O       0.39690   0.72110   0.63200
O          O       0.08910   0.76490   0.36800
O          O       0.23510   0.91090   0.63200
O          O       0.27890   0.60310   0.36800
O          O       0.63610   0.13610   0.27220
O          O       0.86390   0.36390   0.72780
O          O       0.36390   0.86390   0.72780
O          O       0.13610   0.63610   0.27220
O          O       0.43200   0.06560   0.30520
O          O       0.76040   0.12680   0.69480
O          O       0.87320   0.23960   0.30520
O          O       0.93440   0.56800   0.69480
O          O       0.56800   0.93440   0.69480
O          O       0.23960   0.87320   0.30520
O          O       0.12680   0.76040   0.69480
O          O       0.06560   0.43200   0.30520
O          O       0.89500   0.10500   0.50000
O          O       0.60500   0.39500   0.50000
O          O       0.10500   0.89500   0.50000
O          O       0.39500   0.60500   0.50000
O          O       0.79560   0.91280   0.38460
O          O       0.52820   0.41100   0.61540
O          O       0.58900   0.47180   0.38460
O          O       0.08720   0.20440   0.61540
O          O       0.20440   0.08720   0.61540
O          O       0.47180   0.58900   0.38460
O          O       0.41100   0.52820   0.61540
O          O       0.91280   0.79560   0.38460
O          O       0.66550   0.97530   0.45420
O          O       0.52110   0.21130   0.54580
O          O       0.78870   0.47890   0.45420
O          O       0.02470   0.33450   0.54580
O          O       0.33450   0.02470   0.54580
O          O       0.47890   0.78870   0.45420
O          O       0.21130   0.52110   0.54580
O          O       0.97530   0.66550   0.45420
O          O       0.68990   0.68990   0.37980
O          O       0.31010   0.31010   0.62020
O          O       0.74560   0.74560   0.26240
O          O       0.48320   0.48320   0.73760
O          O       0.51680   0.51680   0.26240
O          O       0.25440   0.25440   0.73760
O          O       0.42720   0.42720   0.85440
O          O       0.57280   0.57280   0.14560
O          O       0.27720   0.91420   0.00000
O          O       0.91420   0.27720   0.00000
O          O       0.72280   0.08580   0.00000
O          O       0.08580   0.72280   0.00000
O          O       0.50000   0.00000   0.00000
O          O       0.00000   0.50000   0.00000
O          O       0.35620   0.85920   0.21540
O          O       0.64380   0.14080   0.78460
O          O       0.85920   0.35620   0.21540
O          O       0.14080   0.64380   0.78460
O          O       0.30050   0.77190   0.07240
O          O       0.69950   0.22810   0.92760
O          O       0.77190   0.30050   0.07240
O          O       0.22810   0.69950   0.92760
O          O       0.45620   0.90120   0.35740
O          O       0.54380   0.09880   0.64260
O          O       0.90120   0.45620   0.35740
O          O       0.09880   0.54380   0.64260
O          O       0.50000   0.00000   0.50000
O          O       0.00000   0.50000   0.50000
Si         Si      0.64390   0.89850   0.14920
Si         Si      0.74930   0.49470   0.85080
Si         Si      0.50530   0.25070   0.14920
Si         Si      0.10150   0.35610   0.85080
Si         Si      0.35610   0.10150   0.85080
Si         Si      0.25070   0.50530   0.14920
Si         Si      0.49470   0.74930   0.85080
Si         Si      0.89850   0.64390   0.14920
Si         Si      0.54000   0.17160   0.29020
Si         Si      0.88140   0.24980   0.70980
Si         Si      0.75020   0.11860   0.29020
Si         Si      0.82840   0.46000   0.70980
Si         Si      0.46000   0.82840   0.70980
Si         Si      0.11860   0.75020   0.29020
Si         Si      0.24980   0.88140   0.70980
Si         Si      0.17160   0.54000   0.29020
Si         Si      0.78120   0.02080   0.42640
Si         Si      0.59440   0.35480   0.57360
Si         Si      0.64520   0.40560   0.42640
Si         Si      0.97920   0.21880   0.57360
Si         Si      0.21880   0.97920   0.57360
Si         Si      0.40560   0.64520   0.42640
Si         Si      0.35480   0.59440   0.57360
Si         Si      0.02080   0.78120   0.42640
Si         Si      0.78650   0.78650   0.35220
Si         Si      0.43430   0.43430   0.64780
Si         Si      0.56570   0.56570   0.35220
Si         Si      0.21350   0.21350   0.64780
Si         Si      0.52480   0.52480   0.82780
Si         Si      0.69700   0.69700   0.17220
Si         Si      0.30300   0.30300   0.82780
Si         Si      0.47520   0.47520   0.17220
Si         Si      0.39440   0.02940   0.00000
Si         Si      0.02940   0.39440   0.00000
Si         Si      0.60560   0.97060   0.00000
Si         Si      0.97060   0.60560   0.00000
Si         Si      0.37430   0.77690   0.15120
Si         Si      0.62570   0.22310   0.84880
Si         Si      0.77690   0.37430   0.15120
Si         Si      0.22310   0.62570   0.84880
Si         Si      0.37260   0.92680   0.29940
Si         Si      0.62740   0.07320   0.70060
Si         Si      0.92680   0.37260   0.29940
Si         Si      0.07320   0.62740   0.70060
Si         Si      0.52440   0.91660   0.44100
Si         Si      0.47560   0.08340   0.55900
Si         Si      0.91660   0.52440   0.44100
Si         Si      0.08340   0.47560   0.55900
Si         Si      0.22190   0.77810   0.00000
Si         Si      0.77810   0.22190   0.00000
