data_crystal

_cell_length_a    17.21500
_cell_length_b    17.21500
_cell_length_c    28.08200
_cell_angle_alpha 90.00000
_cell_angle_beta  90.00000
_cell_angle_gamma 120.00000

_space_group_name_Hall 'P 1'
_space_group_name_H-M_alt 'P 1'

loop_
_symmetry_equiv_pos_as_xyz
 'x,y,z'

loop_
_atom_site_label
_atom_site_type_symbol
_atom_site_fract_x
_atom_site_fract_y
_atom_site_fract_z
Si         Si      0.96340   0.39300   0.89250
Si         Si      0.42960   0.03660   0.89250
Si         Si      0.60700   0.57040   0.89250
Si         Si      0.03660   0.60700   0.39250
Si         Si      0.57040   0.96340   0.39250
Si         Si      0.39300   0.42960   0.39250
Si         Si      0.42960   0.39300   0.89250
Si         Si      0.60700   0.03660   0.89250
Si         Si      0.96340   0.57040   0.89250
Si         Si      0.57040   0.60700   0.39250
Si         Si      0.39300   0.96340   0.39250
Si         Si      0.03660   0.42960   0.39250
Si         Si      0.03660   0.60700   0.10750
Si         Si      0.57040   0.96340   0.10750
Si         Si      0.39300   0.42960   0.10750
Si         Si      0.96340   0.39300   0.60750
Si         Si      0.42960   0.03660   0.60750
Si         Si      0.60700   0.57040   0.60750
Si         Si      0.57040   0.60700   0.10750
Si         Si      0.39300   0.96340   0.10750
Si         Si      0.03660   0.42960   0.10750
Si         Si      0.42960   0.39300   0.60750
Si         Si      0.60700   0.03660   0.60750
Si         Si      0.96340   0.57040   0.60750
Si         Si      0.90360   0.27370   0.98210
Si         Si      0.37010   0.09640   0.98210
Si         Si      0.72630   0.62990   0.98210
Si         Si      0.09640   0.72630   0.48210
Si         Si      0.62990   0.90360   0.48210
Si         Si      0.27370   0.37010   0.48210
Si         Si      0.37010   0.27370   0.98210
Si         Si      0.72630   0.09640   0.98210
Si         Si      0.90360   0.62990   0.98210
Si         Si      0.62990   0.72630   0.48210
Si         Si      0.27370   0.90360   0.48210
Si         Si      0.09640   0.37010   0.48210
Si         Si      0.09640   0.72630   0.01790
Si         Si      0.62990   0.90360   0.01790
Si         Si      0.27370   0.37010   0.01790
Si         Si      0.90360   0.27370   0.51790
Si         Si      0.37010   0.09640   0.51790
Si         Si      0.72630   0.62990   0.51790
Si         Si      0.62990   0.72630   0.01790
Si         Si      0.27370   0.90360   0.01790
Si         Si      0.09640   0.37010   0.01790
Si         Si      0.37010   0.27370   0.51790
Si         Si      0.72630   0.09640   0.51790
Si         Si      0.90360   0.62990   0.51790
Si         Si      0.84440   0.33280   0.07080
Si         Si      0.48840   0.15560   0.07080
Si         Si      0.66720   0.51160   0.07080
Si         Si      0.15560   0.66720   0.57080
Si         Si      0.51160   0.84440   0.57080
Si         Si      0.33280   0.48840   0.57080
Si         Si      0.48840   0.33280   0.07080
Si         Si      0.66720   0.15560   0.07080
Si         Si      0.84440   0.51160   0.07080
Si         Si      0.51160   0.66720   0.57080
Si         Si      0.33280   0.84440   0.57080
Si         Si      0.15560   0.48840   0.57080
Si         Si      0.15560   0.66720   0.92920
Si         Si      0.51160   0.84440   0.92920
Si         Si      0.33280   0.48840   0.92920
Si         Si      0.84440   0.33280   0.42920
Si         Si      0.48840   0.15560   0.42920
Si         Si      0.66720   0.51160   0.42920
Si         Si      0.51160   0.66720   0.92920
Si         Si      0.33280   0.84440   0.92920
Si         Si      0.15560   0.48840   0.92920
Si         Si      0.48840   0.33280   0.42920
Si         Si      0.66720   0.15560   0.42920
Si         Si      0.84440   0.51160   0.42920
Si         Si      0.84500   0.33350   0.80430
Si         Si      0.48850   0.15500   0.80430
Si         Si      0.66650   0.51150   0.80430
Si         Si      0.15500   0.66650   0.30430
Si         Si      0.51150   0.84500   0.30430
Si         Si      0.33350   0.48850   0.30430
Si         Si      0.48850   0.33350   0.80430
Si         Si      0.66650   0.15500   0.80430
Si         Si      0.84500   0.51150   0.80430
Si         Si      0.51150   0.66650   0.30430
Si         Si      0.33350   0.84500   0.30430
Si         Si      0.15500   0.48850   0.30430
Si         Si      0.15500   0.66650   0.19570
Si         Si      0.51150   0.84500   0.19570
Si         Si      0.33350   0.48850   0.19570
Si         Si      0.84500   0.33350   0.69570
Si         Si      0.48850   0.15500   0.69570
Si         Si      0.66650   0.51150   0.69570
Si         Si      0.51150   0.66650   0.19570
Si         Si      0.33350   0.84500   0.19570
Si         Si      0.15500   0.48850   0.19570
Si         Si      0.48850   0.33350   0.69570
Si         Si      0.66650   0.15500   0.69570
Si         Si      0.84500   0.51150   0.69570
O          O       0.94260   0.47130   0.90690
O          O       0.52870   0.05740   0.90690
O          O       0.52870   0.47130   0.90690
O          O       0.05740   0.52870   0.40690
O          O       0.47130   0.94260   0.40690
O          O       0.47130   0.52870   0.40690
O          O       0.05740   0.52870   0.09310
O          O       0.47130   0.94260   0.09310
O          O       0.47130   0.52870   0.09310
O          O       0.94260   0.47130   0.59310
O          O       0.52870   0.05740   0.59310
O          O       0.52870   0.47130   0.59310
O          O       0.92940   0.36040   0.83890
O          O       0.43100   0.07060   0.83890
O          O       0.63960   0.56900   0.83890
O          O       0.07060   0.63960   0.33890
O          O       0.56900   0.92940   0.33890
O          O       0.36040   0.43100   0.33890
O          O       0.43100   0.36040   0.83890
O          O       0.63960   0.07060   0.83890
O          O       0.92940   0.56900   0.83890
O          O       0.56900   0.63960   0.33890
O          O       0.36040   0.92940   0.33890
O          O       0.07060   0.43100   0.33890
O          O       0.07060   0.63960   0.16110
O          O       0.56900   0.92940   0.16110
O          O       0.36040   0.43100   0.16110
O          O       0.92940   0.36040   0.66110
O          O       0.43100   0.07060   0.66110
O          O       0.63960   0.56900   0.66110
O          O       0.56900   0.63960   0.16110
O          O       0.36040   0.92940   0.16110
O          O       0.07060   0.43100   0.16110
O          O       0.43100   0.36040   0.66110
O          O       0.63960   0.07060   0.66110
O          O       0.92940   0.56900   0.66110
O          O       0.06970   0.43070   0.89560
O          O       0.36100   0.93030   0.89560
O          O       0.56930   0.63900   0.89560
O          O       0.93030   0.56930   0.39560
O          O       0.63900   0.06970   0.39560
O          O       0.43070   0.36100   0.39560
O          O       0.36100   0.43070   0.89560
O          O       0.56930   0.93030   0.89560
O          O       0.06970   0.63900   0.89560
O          O       0.63900   0.56930   0.39560
O          O       0.43070   0.06970   0.39560
O          O       0.93030   0.36100   0.39560
O          O       0.93030   0.56930   0.10440
O          O       0.63900   0.06970   0.10440
O          O       0.43070   0.36100   0.10440
O          O       0.06970   0.43070   0.60440
O          O       0.36100   0.93030   0.60440
O          O       0.56930   0.63900   0.60440
O          O       0.63900   0.56930   0.10440
O          O       0.43070   0.06970   0.10440
O          O       0.93030   0.36100   0.10440
O          O       0.36100   0.43070   0.60440
O          O       0.56930   0.93030   0.60440
O          O       0.06970   0.63900   0.60440
O          O       0.91180   0.30960   0.92840
O          O       0.39780   0.08820   0.92840
O          O       0.69040   0.60220   0.92840
O          O       0.08820   0.69040   0.42840
O          O       0.60220   0.91180   0.42840
O          O       0.30960   0.39780   0.42840
O          O       0.39780   0.30960   0.92840
O          O       0.69040   0.08820   0.92840
O          O       0.91180   0.60220   0.92840
O          O       0.60220   0.69040   0.42840
O          O       0.30960   0.91180   0.42840
O          O       0.08820   0.39780   0.42840
O          O       0.08820   0.69040   0.07160
O          O       0.60220   0.91180   0.07160
O          O       0.30960   0.39780   0.07160
O          O       0.91180   0.30960   0.57160
O          O       0.39780   0.08820   0.57160
O          O       0.69040   0.60220   0.57160
O          O       0.60220   0.69040   0.07160
O          O       0.30960   0.91180   0.07160
O          O       0.08820   0.39780   0.07160
O          O       0.39780   0.30960   0.57160
O          O       0.69040   0.08820   0.57160
O          O       0.91180   0.60220   0.57160
O          O       0.00000   0.29140   1.00000
O          O       0.29140   0.00000   1.00000
O          O       0.70860   0.70860   0.00000
O          O       0.00000   0.70860   0.50000
O          O       0.70860   1.00000   0.50000
O          O       0.29140   0.29140   0.50000
O          O       0.29140   0.29140   0.00000
O          O       0.70860   1.00000   0.00000
O          O       0.00000   0.70860   1.00000
O          O       0.70860   0.70860   0.50000
O          O       0.29140   0.00000   0.50000
O          O       0.00000   0.29140   0.50000
O          O       0.87000   0.32600   0.01640
O          O       0.45600   0.13000   0.01640
O          O       0.67400   0.54400   0.01640
O          O       0.13000   0.67400   0.51640
O          O       0.54400   0.87000   0.51640
O          O       0.32600   0.45600   0.51640
O          O       0.45600   0.32600   0.01640
O          O       0.67400   0.13000   0.01640
O          O       0.87000   0.54400   0.01640
O          O       0.54400   0.67400   0.51640
O          O       0.32600   0.87000   0.51640
O          O       0.13000   0.45600   0.51640
O          O       0.13000   0.67400   0.98360
O          O       0.54400   0.87000   0.98360
O          O       0.32600   0.45600   0.98360
O          O       0.87000   0.32600   0.48360
O          O       0.45600   0.13000   0.48360
O          O       0.67400   0.54400   0.48360
O          O       0.54400   0.67400   0.98360
O          O       0.32600   0.87000   0.98360
O          O       0.13000   0.45600   0.98360
O          O       0.45600   0.32600   0.48360
O          O       0.67400   0.13000   0.48360
O          O       0.87000   0.54400   0.48360
O          O       0.83220   0.16780   0.98380
O          O       0.33560   0.16780   0.98380
O          O       0.83220   0.66440   0.98380
O          O       0.16780   0.83220   0.48380
O          O       0.66440   0.83220   0.48380
O          O       0.16780   0.33560   0.48380
O          O       0.16780   0.83220   0.01620
O          O       0.66440   0.83220   0.01620
O          O       0.16780   0.33560   0.01620
O          O       0.83220   0.16780   0.51620
O          O       0.33560   0.16780   0.51620
O          O       0.83220   0.66440   0.51620
O          O       0.76320   0.23680   0.08760
O          O       0.47360   0.23680   0.08760
O          O       0.76320   0.52640   0.08760
O          O       0.23680   0.76320   0.58760
O          O       0.52640   0.76320   0.58760
O          O       0.23680   0.47360   0.58760
O          O       0.23680   0.76320   0.91240
O          O       0.52640   0.76320   0.91240
O          O       0.23680   0.47360   0.91240
O          O       0.76320   0.23680   0.41240
O          O       0.47360   0.23680   0.41240
O          O       0.76320   0.52640   0.41240
O          O       0.81390   0.40700   0.07490
O          O       0.59310   0.18610   0.07490
O          O       0.59300   0.40690   0.07490
O          O       0.18610   0.59300   0.57490
O          O       0.40690   0.81390   0.57490
O          O       0.40700   0.59310   0.57490
O          O       0.18610   0.59300   0.92510
O          O       0.40690   0.81390   0.92510
O          O       0.40700   0.59310   0.92510
O          O       0.81390   0.40700   0.42510
O          O       0.59310   0.18610   0.42510
O          O       0.59300   0.40690   0.42510
O          O       0.81320   0.40660   0.80950
O          O       0.59340   0.18680   0.80950
O          O       0.59340   0.40660   0.80950
O          O       0.18680   0.59340   0.30950
O          O       0.40660   0.81320   0.30950
O          O       0.40660   0.59340   0.30950
O          O       0.18680   0.59340   0.19050
O          O       0.40660   0.81320   0.19050
O          O       0.40660   0.59340   0.19050
O          O       0.81320   0.40660   0.69050
O          O       0.59340   0.18680   0.69050
O          O       0.59340   0.40660   0.69050
O          O       0.76390   0.23620   0.81900
O          O       0.47230   0.23610   0.81900
O          O       0.76380   0.52770   0.81900
O          O       0.23610   0.76380   0.31900
O          O       0.52770   0.76390   0.31900
O          O       0.23620   0.47230   0.31900
O          O       0.23610   0.76380   0.18100
O          O       0.52770   0.76390   0.18100
O          O       0.23620   0.47230   0.18100
O          O       0.76390   0.23620   0.68100
O          O       0.47230   0.23610   0.68100
O          O       0.76380   0.52770   0.68100
O          O       0.87360   0.33120   0.75000
O          O       0.45760   0.12640   0.75000
O          O       0.66880   0.54240   0.75000
O          O       0.12640   0.66880   0.25000
O          O       0.54240   0.87360   0.25000
O          O       0.33120   0.45760   0.25000
O          O       0.45760   0.33120   0.75000
O          O       0.66880   0.12640   0.75000
O          O       0.87360   0.54240   0.75000
O          O       0.54240   0.66880   0.25000
O          O       0.33120   0.87360   0.25000
O          O       0.12640   0.45760   0.25000
