data_crystal

_cell_length_a    7.57100
_cell_length_b    18.14800
_cell_length_c    25.93200
_cell_angle_alpha 90.00000
_cell_angle_beta  90.00000
_cell_angle_gamma 90.00000

_space_group_name_Hall 'P 1'
_space_group_name_H-M_alt 'P 1'

loop_
_symmetry_equiv_pos_as_xyz
 'x,y,z'

loop_
_atom_site_label
_atom_site_type_symbol
_atom_site_fract_x
_atom_site_fract_y
_atom_site_fract_z
Si         Si      0.04660   0.16660   0.91230
Si         Si      0.45340   0.16660   0.91230
Si         Si      0.04660   0.33340   0.91230
Si         Si      0.45340   0.33340   0.91230
Si         Si      0.95340   0.83340   0.08770
Si         Si      0.54660   0.83340   0.08770
Si         Si      0.95340   0.66660   0.08770
Si         Si      0.54660   0.66660   0.08770
Si         Si      0.04710   0.97540   0.14450
Si         Si      0.45290   0.97540   0.14450
Si         Si      0.04710   0.52460   0.14450
Si         Si      0.45290   0.52460   0.14450
Si         Si      0.95290   0.02460   0.85550
Si         Si      0.54710   0.02460   0.85550
Si         Si      0.95290   0.47540   0.85550
Si         Si      0.54710   0.47540   0.85550
Si         Si      0.04600   0.05870   0.24630
Si         Si      0.45400   0.05870   0.24630
Si         Si      0.04600   0.44130   0.24630
Si         Si      0.45400   0.44130   0.24630
Si         Si      0.95400   0.94130   0.75370
Si         Si      0.54600   0.94130   0.75370
Si         Si      0.95400   0.55870   0.75370
Si         Si      0.54600   0.55870   0.75370
Si         Si      0.95470   0.05490   0.36140
Si         Si      0.54530   0.05490   0.36140
Si         Si      0.95470   0.44510   0.36140
Si         Si      0.54530   0.44510   0.36140
Si         Si      0.04530   0.94510   0.63860
Si         Si      0.45470   0.94510   0.63860
Si         Si      0.04530   0.55490   0.63860
Si         Si      0.45470   0.55490   0.63860
Si         Si      0.04590   0.94650   0.45250
Si         Si      0.45410   0.94650   0.45250
Si         Si      0.04590   0.55350   0.45250
Si         Si      0.45410   0.55350   0.45250
Si         Si      0.95410   0.05350   0.54750
Si         Si      0.54590   0.05350   0.54750
Si         Si      0.95410   0.44650   0.54750
Si         Si      0.54590   0.44650   0.54750
Si         Si      0.75000   0.16550   0.99560
Si         Si      0.75000   0.33450   0.99560
Si         Si      0.25000   0.83450   0.00440
Si         Si      0.25000   0.66550   0.00440
Si         Si      0.75000   0.07880   0.10240
Si         Si      0.75000   0.42120   0.10240
Si         Si      0.25000   0.92120   0.89760
Si         Si      0.25000   0.57880   0.89760
Si         Si      0.75000   0.16260   0.20410
Si         Si      0.75000   0.33740   0.20410
Si         Si      0.25000   0.83740   0.79590
Si         Si      0.25000   0.66260   0.79590
Si         Si      0.25000   0.16430   0.39700
Si         Si      0.25000   0.33570   0.39700
Si         Si      0.75000   0.83570   0.60300
Si         Si      0.75000   0.66430   0.60300
Si         Si      0.25000   0.16440   0.52050
Si         Si      0.25000   0.33560   0.52050
Si         Si      0.75000   0.83560   0.47950
Si         Si      0.75000   0.66440   0.47950
O          O       0.57670   0.14950   0.96140
O          O       0.92330   0.14950   0.96140
O          O       0.57670   0.35050   0.96140
O          O       0.92330   0.35050   0.96140
O          O       0.42330   0.85050   0.03860
O          O       0.07670   0.85050   0.03860
O          O       0.42330   0.64950   0.03860
O          O       0.07670   0.64950   0.03860
O          O       0.75000   0.11120   0.04460
O          O       0.75000   0.38880   0.04460
O          O       0.25000   0.88880   0.95540
O          O       0.25000   0.61120   0.95540
O          O       0.75000   0.25000   0.01450
O          O       0.25000   0.75000   0.98550
O          O       0.57670   0.02880   0.11060
O          O       0.92330   0.02880   0.11060
O          O       0.57670   0.47120   0.11060
O          O       0.92330   0.47120   0.11060
O          O       0.42330   0.97120   0.88940
O          O       0.07670   0.97120   0.88940
O          O       0.42330   0.52880   0.88940
O          O       0.07670   0.52880   0.88940
O          O       0.75000   0.14570   0.14320
O          O       0.75000   0.35430   0.14320
O          O       0.25000   0.85430   0.85680
O          O       0.25000   0.64570   0.85680
O          O       0.57590   0.12750   0.22990
O          O       0.92410   0.12750   0.22990
O          O       0.57590   0.37250   0.22990
O          O       0.92410   0.37250   0.22990
O          O       0.42410   0.87250   0.77010
O          O       0.07590   0.87250   0.77010
O          O       0.42410   0.62750   0.77010
O          O       0.07590   0.62750   0.77010
O          O       0.75000   0.25000   0.21420
O          O       0.25000   0.75000   0.78580
O          O       0.25000   0.15700   0.92910
O          O       0.25000   0.34300   0.92910
O          O       0.75000   0.84300   0.07090
O          O       0.75000   0.65700   0.07090
O          O       0.00250   0.10950   0.86660
O          O       0.49750   0.10950   0.86660
O          O       0.00250   0.39050   0.86660
O          O       0.49750   0.39050   0.86660
O          O       0.99750   0.89050   0.13340
O          O       0.50250   0.89050   0.13340
O          O       0.99750   0.60950   0.13340
O          O       0.50250   0.60950   0.13340
O          O       0.01420   0.25000   0.89340
O          O       0.48580   0.25000   0.89340
O          O       0.98580   0.75000   0.10660
O          O       0.51420   0.75000   0.10660
O          O       0.02170   0.99350   0.20480
O          O       0.47830   0.99350   0.20480
O          O       0.02170   0.50650   0.20480
O          O       0.47830   0.50650   0.20480
O          O       0.97830   0.00650   0.79520
O          O       0.52170   0.00650   0.79520
O          O       0.97830   0.49350   0.79520
O          O       0.52170   0.49350   0.79520
O          O       0.25000   0.98930   0.12860
O          O       0.25000   0.51070   0.12860
O          O       0.75000   0.01070   0.87140
O          O       0.75000   0.48930   0.87140
O          O       0.25000   0.08360   0.24810
O          O       0.25000   0.41640   0.24810
O          O       0.75000   0.91640   0.75190
O          O       0.75000   0.58360   0.75190
O          O       0.98560   0.03020   0.30240
O          O       0.51440   0.03020   0.30240
O          O       0.98560   0.46980   0.30240
O          O       0.51440   0.46980   0.30240
O          O       0.01440   0.96980   0.69760
O          O       0.48560   0.96980   0.69760
O          O       0.01440   0.53020   0.69760
O          O       0.48560   0.53020   0.69760
O          O       0.07610   0.12550   0.37380
O          O       0.42390   0.12550   0.37380
O          O       0.07610   0.37450   0.37380
O          O       0.42390   0.37450   0.37380
O          O       0.92390   0.87450   0.62620
O          O       0.57610   0.87450   0.62620
O          O       0.92390   0.62550   0.62620
O          O       0.57610   0.62550   0.62620
O          O       0.25000   0.25000   0.38110
O          O       0.75000   0.75000   0.61890
O          O       0.25000   0.15640   0.45880
O          O       0.25000   0.34360   0.45880
O          O       0.75000   0.84360   0.54120
O          O       0.75000   0.65640   0.54120
O          O       0.07640   0.12600   0.54420
O          O       0.42360   0.12600   0.54420
O          O       0.07640   0.37400   0.54420
O          O       0.42360   0.37400   0.54420
O          O       0.92360   0.87400   0.45580
O          O       0.57640   0.87400   0.45580
O          O       0.92360   0.62600   0.45580
O          O       0.57640   0.62600   0.45580
O          O       0.25000   0.25000   0.53660
O          O       0.75000   0.75000   0.46340
O          O       0.00950   0.98790   0.39880
O          O       0.49050   0.98790   0.39880
O          O       0.00950   0.51210   0.39880
O          O       0.49050   0.51210   0.39880
O          O       0.99050   0.01210   0.60120
O          O       0.50950   0.01210   0.60120
O          O       0.99050   0.48790   0.60120
O          O       0.50950   0.48790   0.60120
O          O       0.75000   0.07540   0.37010
O          O       0.75000   0.42460   0.37010
O          O       0.25000   0.92460   0.62990
O          O       0.25000   0.57540   0.62990
O          O       0.25000   0.92210   0.45560
O          O       0.25000   0.57790   0.45560
O          O       0.75000   0.07790   0.54440
O          O       0.75000   0.42210   0.54440
O          O       0.00000   0.00000   0.50000
O          O       0.50000   0.00000   0.50000
O          O       0.00000   0.50000   0.50000
O          O       0.50000   0.50000   0.50000
