data_crystal

_cell_length_a    9.08304
_cell_length_b    9.12700
_cell_length_c    9.85967
_cell_angle_alpha 62.42916
_cell_angle_beta  80.66249
_cell_angle_gamma 69.47911

_space_group_name_Hall 'P 1'
_space_group_name_H-M_alt 'P 1'

loop_
_symmetry_equiv_pos_as_xyz
 'x,y,z'

loop_
_atom_site_label
_atom_site_type_symbol
_atom_site_fract_x
_atom_site_fract_y
_atom_site_fract_z
O          O       0.12640   0.57790   0.22820
O          O       0.87360   0.19390   0.22820
O          O       0.87360   0.42210   0.77180
O          O       0.12640   0.80610   0.77180
O          O       0.19210   0.84690   0.00000
O          O       0.80790   0.15310   0.00000
O          O       0.30070   0.72640   0.27520
O          O       0.69930   0.99840   0.27520
O          O       0.69930   0.27360   0.72480
O          O       0.30070   0.00160   0.72480
O          O       0.00000   0.89090   0.21820
O          O       0.00000   0.10910   0.78180
O          O       0.26410   0.74510   0.53840
O          O       0.73590   0.71650   0.53840
O          O       0.73590   0.25490   0.46160
O          O       0.26410   0.28350   0.46160
O          O       0.50000   0.50000   0.50000
O          O       0.50000   0.00000   0.50000
O          O       0.50000   0.82230   0.35540
O          O       0.50000   0.17770   0.64460
O          O       0.00000   0.32510   0.34980
O          O       0.00000   0.67490   0.65020
O          O       1.00000   0.50000   0.50000
O          O       0.00000   1.00000   0.50000
Si         Si      0.15410   0.76080   0.18000
Si         Si      0.84590   0.05920   0.18000
Si         Si      0.84590   0.23920   0.82000
Si         Si      0.15410   0.94080   0.82000
Si         Si      0.38990   0.69900   0.41740
Si         Si      0.61010   0.88360   0.41740
Si         Si      0.61010   0.30100   0.58260
Si         Si      0.38990   0.11640   0.58260
Si         Si      0.09770   0.42050   0.38500
Si         Si      0.90230   0.19450   0.38500
Si         Si      0.90230   0.57950   0.61500
Si         Si      0.09770   0.80550   0.61500
