data_crystal

_cell_length_a    13.05400
_cell_length_b    13.05400
_cell_length_c    15.17500
_cell_angle_alpha 90.00000
_cell_angle_beta  90.00000
_cell_angle_gamma 120.00000

_space_group_name_Hall 'P 1'
_space_group_name_H-M_alt 'P 1'

loop_
_symmetry_equiv_pos_as_xyz
 'x,y,z'

loop_
_atom_site_label
_atom_site_type_symbol
_atom_site_fract_x
_atom_site_fract_y
_atom_site_fract_z
Si         Si      0.99940   0.23390   0.89860
Si         Si      0.23450   0.00060   0.89860
Si         Si      0.76610   0.76550   0.89860
Si         Si      0.00060   0.76610   0.39860
Si         Si      0.76550   0.99940   0.39860
Si         Si      0.23390   0.23450   0.39860
Si         Si      0.23450   0.23390   0.89860
Si         Si      0.76610   0.00060   0.89860
Si         Si      0.99940   0.76550   0.89860
Si         Si      0.76550   0.76610   0.39860
Si         Si      0.23390   0.99940   0.39860
Si         Si      0.00060   0.23450   0.39860
Si         Si      0.00060   0.76610   0.10140
Si         Si      0.76550   0.99940   0.10140
Si         Si      0.23390   0.23450   0.10140
Si         Si      0.99940   0.23390   0.60140
Si         Si      0.23450   0.00060   0.60140
Si         Si      0.76610   0.76550   0.60140
Si         Si      0.76550   0.76610   0.10140
Si         Si      0.23390   0.99940   0.10140
Si         Si      0.00060   0.23450   0.10140
Si         Si      0.23450   0.23390   0.60140
Si         Si      0.76610   0.00060   0.60140
Si         Si      0.99940   0.76550   0.60140
Si         Si      0.90390   0.33000   0.75000
Si         Si      0.42610   0.09610   0.75000
Si         Si      0.67000   0.57390   0.75000
Si         Si      0.09610   0.67000   0.25000
Si         Si      0.57390   0.90390   0.25000
Si         Si      0.33000   0.42610   0.25000
Si         Si      0.42610   0.33000   0.75000
Si         Si      0.67000   0.09610   0.75000
Si         Si      0.90390   0.57390   0.75000
Si         Si      0.57390   0.67000   0.25000
Si         Si      0.33000   0.90390   0.25000
Si         Si      0.09610   0.42610   0.25000
O          O       0.12890   0.25780   0.87190
O          O       0.12890   0.87110   0.87190
O          O       0.74220   0.87110   0.87190
O          O       0.87110   0.74220   0.37190
O          O       0.87110   0.12890   0.37190
O          O       0.25780   0.12890   0.37190
O          O       0.87110   0.74220   0.12810
O          O       0.87110   0.12890   0.12810
O          O       0.25780   0.12890   0.12810
O          O       0.12890   0.25780   0.62810
O          O       0.12890   0.87110   0.62810
O          O       0.74220   0.87110   0.62810
O          O       0.96400   0.31140   0.83660
O          O       0.34740   0.03600   0.83660
O          O       0.68860   0.65260   0.83660
O          O       0.03600   0.68860   0.33660
O          O       0.65260   0.96400   0.33660
O          O       0.31140   0.34740   0.33660
O          O       0.34740   0.31140   0.83660
O          O       0.68860   0.03600   0.83660
O          O       0.96400   0.65260   0.83660
O          O       0.65260   0.68860   0.33660
O          O       0.31140   0.96400   0.33660
O          O       0.03600   0.34740   0.33660
O          O       0.03600   0.68860   0.16340
O          O       0.65260   0.96400   0.16340
O          O       0.31140   0.34740   0.16340
O          O       0.96400   0.31140   0.66340
O          O       0.34740   0.03600   0.66340
O          O       0.68860   0.65260   0.66340
O          O       0.65260   0.68860   0.16340
O          O       0.31140   0.96400   0.16340
O          O       0.03600   0.34740   0.16340
O          O       0.34740   0.31140   0.66340
O          O       0.68860   0.03600   0.66340
O          O       0.96400   0.65260   0.66340
O          O       0.90430   0.09570   0.88610
O          O       0.19140   0.09570   0.88610
O          O       0.90430   0.80860   0.88610
O          O       0.09570   0.90430   0.38610
O          O       0.80860   0.90430   0.38610
O          O       0.09570   0.19140   0.38610
O          O       0.09570   0.90430   0.11390
O          O       0.80860   0.90430   0.11390
O          O       0.09570   0.19140   0.11390
O          O       0.90430   0.09570   0.61390
O          O       0.19140   0.09570   0.61390
O          O       0.90430   0.80860   0.61390
O          O       1.00000   0.27050   0.00000
O          O       0.27050   0.00000   0.00000
O          O       0.72950   0.72950   0.00000
O          O       1.00000   0.72950   0.50000
O          O       0.72950   0.00000   0.50000
O          O       0.27050   0.27050   0.50000
O          O       0.27050   0.27050   0.00000
O          O       0.72950   0.00000   0.00000
O          O       1.00000   0.72950   1.00000
O          O       0.72950   0.72950   0.50000
O          O       0.27050   0.00000   0.50000
O          O       1.00000   0.27050   0.50000
O          O       0.76440   0.23560   0.75000
O          O       0.47120   0.23560   0.75000
O          O       0.76440   0.52880   0.75000
O          O       0.23560   0.76440   0.25000
O          O       0.52880   0.76440   0.25000
O          O       0.23560   0.47120   0.25000
O          O       0.92430   0.46210   0.75000
O          O       0.53780   0.07570   0.75000
O          O       0.53790   0.46220   0.75000
O          O       0.07570   0.53790   0.25000
O          O       0.46220   0.92430   0.25000
O          O       0.46210   0.53780   0.25000
