data_crystal

_cell_length_a    9.68600
_cell_length_b    12.22600
_cell_length_c    22.83600
_cell_angle_alpha 90.00000
_cell_angle_beta  90.00000
_cell_angle_gamma 90.00000

_space_group_name_Hall 'P 1'
_space_group_name_H-M_alt 'P 1'

loop_
_symmetry_equiv_pos_as_xyz
 'x,y,z'

loop_
_atom_site_label
_atom_site_type_symbol
_atom_site_fract_x
_atom_site_fract_y
_atom_site_fract_z
Si         Si      0.33420   0.87580   0.86300
Si         Si      0.16580   0.37580   0.36300
Si         Si      0.33420   0.62420   0.86300
Si         Si      0.16580   0.12420   0.36300
Si         Si      0.66580   0.12420   0.13700
Si         Si      0.83420   0.62420   0.63700
Si         Si      0.66580   0.37580   0.13700
Si         Si      0.83420   0.87580   0.63700
Si         Si      0.65220   0.87700   0.52790
Si         Si      0.84780   0.37700   0.02790
Si         Si      0.65220   0.62300   0.52790
Si         Si      0.84780   0.12300   0.02790
Si         Si      0.34780   0.12300   0.47210
Si         Si      0.15220   0.62300   0.97210
Si         Si      0.34780   0.37700   0.47210
Si         Si      0.15220   0.87700   0.97210
Si         Si      0.88390   0.52790   0.92230
Si         Si      0.61610   0.02790   0.42230
Si         Si      0.88390   0.97210   0.92230
Si         Si      0.61610   0.47210   0.42230
Si         Si      0.11610   0.47210   0.07770
Si         Si      0.38390   0.97210   0.57770
Si         Si      0.11610   0.02790   0.07770
Si         Si      0.38390   0.52790   0.57770
Si         Si      0.14530   0.87350   0.65480
Si         Si      0.35470   0.37350   0.15480
Si         Si      0.14530   0.62650   0.65480
Si         Si      0.35470   0.12650   0.15480
Si         Si      0.85470   0.12650   0.34520
Si         Si      0.64530   0.62650   0.84520
Si         Si      0.85470   0.37350   0.34520
Si         Si      0.64530   0.87350   0.84520
Si         Si      0.97440   0.12560   0.81860
Si         Si      0.52560   0.62560   0.31860
Si         Si      0.97440   0.37440   0.81860
Si         Si      0.52560   0.87440   0.31860
Si         Si      0.02560   0.87440   0.18140
Si         Si      0.47440   0.37440   0.68140
Si         Si      0.02560   0.62560   0.18140
Si         Si      0.47440   0.12560   0.68140
Si         Si      0.23250   0.47080   0.75800
Si         Si      0.26750   0.97080   0.25800
Si         Si      0.23250   0.02920   0.75800
Si         Si      0.26750   0.52920   0.25800
Si         Si      0.76750   0.52920   0.24200
Si         Si      0.73250   0.02920   0.74200
Si         Si      0.76750   0.97080   0.24200
Si         Si      0.73250   0.47080   0.74200
O          O       0.29570   0.75000   0.85020
O          O       0.20430   0.25000   0.35020
O          O       0.70430   0.25000   0.14980
O          O       0.79570   0.75000   0.64980
O          O       0.24840   0.91830   0.91900
O          O       0.25160   0.41830   0.41900
O          O       0.24840   0.58170   0.91900
O          O       0.25160   0.08170   0.41900
O          O       0.75160   0.08170   0.08100
O          O       0.74840   0.58170   0.58100
O          O       0.75160   0.41830   0.08100
O          O       0.74840   0.91830   0.58100
O          O       0.49700   0.88560   0.87640
O          O       0.00300   0.38560   0.37640
O          O       0.49700   0.61440   0.87640
O          O       0.00300   0.11440   0.37640
O          O       0.50300   0.11440   0.12360
O          O       0.99700   0.61440   0.62360
O          O       0.50300   0.38560   0.12360
O          O       0.99700   0.88560   0.62360
O          O       0.29660   0.94920   0.80680
O          O       0.20340   0.44920   0.30680
O          O       0.29660   0.55080   0.80680
O          O       0.20340   0.05080   0.30680
O          O       0.70340   0.05080   0.19320
O          O       0.79660   0.55080   0.69320
O          O       0.70340   0.44920   0.19320
O          O       0.79660   0.94920   0.69320
O          O       0.68310   0.75000   0.51490
O          O       0.81690   0.25000   0.01490
O          O       0.31690   0.25000   0.48510
O          O       0.18310   0.75000   0.98510
O          O       0.68480   0.94800   0.47020
O          O       0.81520   0.44800   0.97020
O          O       0.68480   0.55200   0.47020
O          O       0.81520   0.05200   0.97020
O          O       0.31520   0.05200   0.52980
O          O       0.18480   0.55200   0.02980
O          O       0.31520   0.44800   0.52980
O          O       0.18480   0.94800   0.02980
O          O       0.49250   0.89210   0.54570
O          O       0.00750   0.39210   0.04570
O          O       0.49250   0.60790   0.54570
O          O       0.00750   0.10790   0.04570
O          O       0.50750   0.10790   0.45430
O          O       0.99250   0.60790   0.95430
O          O       0.50750   0.39210   0.45430
O          O       0.99250   0.89210   0.95430
O          O       0.96250   0.45630   0.87350
O          O       0.53750   0.95630   0.37350
O          O       0.96250   0.04370   0.87350
O          O       0.53750   0.54370   0.37350
O          O       0.03750   0.54370   0.12650
O          O       0.46250   0.04370   0.62650
O          O       0.03750   0.95630   0.12650
O          O       0.46250   0.45630   0.62650
O          O       0.76530   0.60030   0.89180
O          O       0.73470   0.10030   0.39180
O          O       0.76530   0.89970   0.89180
O          O       0.73470   0.39970   0.39180
O          O       0.23470   0.39970   0.10820
O          O       0.26530   0.89970   0.60820
O          O       0.23470   0.10030   0.10820
O          O       0.26530   0.60030   0.60820
O          O       0.16280   0.75000   0.67830
O          O       0.33720   0.25000   0.17830
O          O       0.83720   0.25000   0.32170
O          O       0.66280   0.75000   0.82170
O          O       0.15490   0.54250   0.70880
O          O       0.34510   0.04250   0.20880
O          O       0.15490   0.95750   0.70880
O          O       0.34510   0.45750   0.20880
O          O       0.84510   0.45750   0.29120
O          O       0.65490   0.95750   0.79120
O          O       0.84510   0.04250   0.29120
O          O       0.65490   0.54250   0.79120
O          O       0.95840   0.25000   0.84080
O          O       0.54160   0.75000   0.34080
O          O       0.04160   0.75000   0.15920
O          O       0.45840   0.25000   0.65920
O          O       0.35450   0.40110   0.72800
O          O       0.14550   0.90110   0.22800
O          O       0.35450   0.09890   0.72800
O          O       0.14550   0.59890   0.22800
O          O       0.64550   0.59890   0.27200
O          O       0.85450   0.09890   0.77200
O          O       0.64550   0.90110   0.27200
O          O       0.85450   0.40110   0.77200
O          O       0.12310   0.38910   0.78810
O          O       0.37690   0.88910   0.28810
O          O       0.12310   0.11090   0.78810
O          O       0.37690   0.61090   0.28810
O          O       0.87690   0.61090   0.21190
O          O       0.62310   0.11090   0.71190
O          O       0.87690   0.88910   0.21190
O          O       0.62310   0.38910   0.71190
