data_crystal

_cell_length_a    7.54628
_cell_length_b    15.06179
_cell_length_c    18.12743
_cell_angle_alpha 90.00000
_cell_angle_beta  90.00000
_cell_angle_gamma 104.50774

_space_group_name_Hall 'P 1'
_space_group_name_H-M_alt 'P 1'

loop_
_symmetry_equiv_pos_as_xyz
 'x,y,z'

loop_
_atom_site_label
_atom_site_type_symbol
_atom_site_fract_x
_atom_site_fract_y
_atom_site_fract_z
O          O       0.07546   0.63364   0.09740
O          O       0.44182   0.36636   0.90260
O          O       0.07546   0.63364   0.40260
O          O       0.44182   0.36636   0.59740
O          O       0.92454   0.36636   0.90260
O          O       0.55818   0.63364   0.09740
O          O       0.92454   0.36636   0.59740
O          O       0.55818   0.63364   0.40260
O          O       0.66680   0.98444   0.12462
O          O       0.68236   0.01556   0.87538
O          O       0.66680   0.98444   0.37538
O          O       0.68236   0.01556   0.62462
O          O       0.33320   0.01556   0.87538
O          O       0.31764   0.98444   0.12462
O          O       0.33320   0.01556   0.62462
O          O       0.31764   0.98444   0.37538
O          O       0.90764   0.46708   0.13969
O          O       0.44056   0.53292   0.86031
O          O       0.90764   0.46708   0.36031
O          O       0.44056   0.53292   0.63969
O          O       0.09236   0.53292   0.86031
O          O       0.55944   0.46708   0.13969
O          O       0.09236   0.53292   0.63969
O          O       0.55944   0.46708   0.36031
O          O       0.79759   0.24610   0.00707
O          O       0.55149   0.75390   0.99293
O          O       0.79759   0.24610   0.49293
O          O       0.55149   0.75390   0.50707
O          O       0.20241   0.75390   0.99293
O          O       0.44851   0.24610   0.00707
O          O       0.20241   0.75390   0.50707
O          O       0.44851   0.24610   0.49293
O          O       0.14290   0.80982   0.12584
O          O       0.33308   0.19018   0.87416
O          O       0.14290   0.80982   0.37416
O          O       0.33308   0.19018   0.62584
O          O       0.85710   0.19018   0.87416
O          O       0.66692   0.80982   0.12584
O          O       0.85710   0.19018   0.62584
O          O       0.66692   0.80982   0.37416
O          O       0.56786   0.13572   0.09552
O          O       0.43214   0.86428   0.90448
O          O       0.56786   0.13572   0.40448
O          O       0.43214   0.86428   0.59552
O          O       0.65647   0.31294   0.12038
O          O       0.34353   0.68706   0.87962
O          O       0.65647   0.31294   0.37962
O          O       0.34353   0.68706   0.62038
O          O       0.25195   0.50390   0.10067
O          O       0.74805   0.49610   0.89933
O          O       0.25195   0.50390   0.39933
O          O       0.74805   0.49610   0.60067
O          O       0.96790   0.93580   0.15806
O          O       0.03210   0.06420   0.84194
O          O       0.96790   0.93580   0.34194
O          O       0.03210   0.06420   0.65806
O          O       0.86577   0.73154   0.04037
O          O       0.13423   0.26846   0.95963
O          O       0.86577   0.73154   0.45963
O          O       0.13423   0.26846   0.54037
O          O       0.69581   0.39162   0.25000
O          O       0.30419   0.60838   0.75000
O          O       0.21223   0.90120   0.25000
O          O       0.31103   0.09880   0.75000
O          O       0.78777   0.09880   0.75000
O          O       0.68897   0.90120   0.25000
O          O       1.00000   0.50000   0.00000
O          O       0.50000   0.50000   0.00000
O          O       1.00000   0.50000   0.50000
O          O       0.50000   0.50000   0.50000
O          O       0.50000   0.00000   1.00000
O          O       0.50000   0.00000   0.50000
Si         Si      0.15953   0.90774   0.16449
Si         Si      0.25179   0.09226   0.83551
Si         Si      0.15953   0.90774   0.33551
Si         Si      0.25179   0.09226   0.66449
Si         Si      0.84047   0.09226   0.83551
Si         Si      0.74821   0.90774   0.16449
Si         Si      0.84047   0.09226   0.66449
Si         Si      0.74821   0.90774   0.33551
Si         Si      0.05797   0.52612   0.08402
Si         Si      0.53185   0.47388   0.91598
Si         Si      0.05797   0.52612   0.41598
Si         Si      0.53185   0.47388   0.58402
Si         Si      0.94203   0.47388   0.91598
Si         Si      0.46815   0.52612   0.08402
Si         Si      0.94203   0.47388   0.58402
Si         Si      0.46815   0.52612   0.41598
Si         Si      0.07156   0.73224   0.06419
Si         Si      0.33932   0.26776   0.93581
Si         Si      0.07156   0.73224   0.43581
Si         Si      0.33932   0.26776   0.56419
Si         Si      0.92844   0.26776   0.93581
Si         Si      0.66068   0.73224   0.06419
Si         Si      0.92844   0.26776   0.56419
Si         Si      0.66068   0.73224   0.43581
Si         Si      0.61769   0.23538   0.05728
Si         Si      0.38231   0.76462   0.94272
Si         Si      0.61769   0.23538   0.44272
Si         Si      0.38231   0.76462   0.55728
Si         Si      0.70503   0.41006   0.16255
Si         Si      0.29497   0.58994   0.83745
Si         Si      0.70503   0.41006   0.33745
Si         Si      0.29497   0.58994   0.66255
Si         Si      0.51297   0.02594   0.08611
Si         Si      0.48703   0.97406   0.91389
Si         Si      0.51297   0.02594   0.41389
Si         Si      0.48703   0.97406   0.58611
