data_crystal

_cell_length_a    8.42600
_cell_length_b    20.63400
_cell_length_c    20.63400
_cell_angle_alpha 120.00000
_cell_angle_beta  90.00000
_cell_angle_gamma 90.00000

_space_group_name_Hall 'P 1'
_space_group_name_H-M_alt 'P 1'

loop_
_symmetry_equiv_pos_as_xyz
 'x,y,z'

loop_
_atom_site_label
_atom_site_type_symbol
_atom_site_fract_x
_atom_site_fract_y
_atom_site_fract_z
Si         Si      0.98350   0.25430   0.36160
Si         Si      0.98350   0.10730   0.74570
Si         Si      0.98350   0.63840   0.89270
Si         Si      0.48350   0.74570   0.63840
Si         Si      0.48350   0.89270   0.25430
Si         Si      0.48350   0.36160   0.10730
Si         Si      0.98350   0.10730   0.36160
Si         Si      0.98350   0.63840   0.74570
Si         Si      0.98350   0.25430   0.89270
Si         Si      0.48350   0.89270   0.63840
Si         Si      0.48350   0.36160   0.25430
Si         Si      0.48350   0.74570   0.10730
Si         Si      0.84190   0.33320   0.52040
Si         Si      0.84190   0.18720   0.66680
Si         Si      0.84190   0.47960   0.81280
Si         Si      0.34190   0.66680   0.47960
Si         Si      0.34190   0.81280   0.33320
Si         Si      0.34190   0.52040   0.18720
Si         Si      0.84190   0.18720   0.52040
Si         Si      0.84190   0.47960   0.66680
Si         Si      0.84190   0.33320   0.81280
Si         Si      0.34190   0.81280   0.47960
Si         Si      0.34190   0.52040   0.33320
Si         Si      0.34190   0.66680   0.18720
Si         Si      0.78010   0.36040   0.33430
Si         Si      0.78010   0.97390   0.63960
Si         Si      0.78010   0.66570   0.02610
Si         Si      0.28010   0.63960   0.66570
Si         Si      0.28010   0.02610   0.36040
Si         Si      0.28010   0.33430   0.97390
Si         Si      0.78010   0.97390   0.33430
Si         Si      0.78010   0.66570   0.63960
Si         Si      0.78010   0.36040   0.02610
Si         Si      0.28010   0.02610   0.66570
Si         Si      0.28010   0.33430   0.36040
Si         Si      0.28010   0.63960   0.97390
Si         Si      0.56650   0.38630   0.46500
Si         Si      0.56650   0.07870   0.61370
Si         Si      0.56650   0.53500   0.92130
Si         Si      0.06650   0.61370   0.53500
Si         Si      0.06650   0.92130   0.38630
Si         Si      0.06650   0.46500   0.07870
Si         Si      0.56650   0.07870   0.46500
Si         Si      0.56650   0.53500   0.61370
Si         Si      0.56650   0.38630   0.92130
Si         Si      0.06650   0.92130   0.53500
Si         Si      0.06650   0.46500   0.38630
Si         Si      0.06650   0.61370   0.07870
O          O       0.16170   0.26550   0.34050
O          O       0.16170   0.07500   0.73450
O          O       0.16170   0.65950   0.92500
O          O       0.66170   0.73450   0.65950
O          O       0.66170   0.92500   0.26550
O          O       0.66170   0.34050   0.07500
O          O       0.16170   0.07500   0.34050
O          O       0.16170   0.65950   0.73450
O          O       0.16170   0.26550   0.92500
O          O       0.66170   0.92500   0.65950
O          O       0.66170   0.34050   0.26550
O          O       0.66170   0.73450   0.07500
O          O       0.95300   0.16740   0.33480
O          O       0.95300   0.16740   0.83260
O          O       0.95300   0.66520   0.83260
O          O       0.45300   0.83260   0.66520
O          O       0.45300   0.83260   0.16740
O          O       0.45300   0.33480   0.16740
O          O       0.96300   0.30310   0.45100
O          O       0.96300   0.14790   0.69690
O          O       0.96300   0.54900   0.85210
O          O       0.46300   0.69690   0.54900
O          O       0.46300   0.85210   0.30310
O          O       0.46300   0.45100   0.14790
O          O       0.96300   0.14790   0.45100
O          O       0.96300   0.54900   0.69690
O          O       0.96300   0.30310   0.85210
O          O       0.46300   0.85210   0.54900
O          O       0.46300   0.45100   0.30310
O          O       0.46300   0.69690   0.14790
O          O       0.85920   0.28460   0.32360
O          O       0.85920   0.03900   0.71540
O          O       0.85920   0.67640   0.96100
O          O       0.35920   0.71540   0.67640
O          O       0.35920   0.96100   0.28460
O          O       0.35920   0.32360   0.03900
O          O       0.85920   0.03900   0.32360
O          O       0.85920   0.67640   0.71540
O          O       0.85920   0.28460   0.96100
O          O       0.35920   0.96100   0.67640
O          O       0.35920   0.32360   0.28460
O          O       0.35920   0.71540   0.03900
O          O       0.84180   0.27620   0.55240
O          O       0.84180   0.27620   0.72380
O          O       0.84180   0.44760   0.72380
O          O       0.34180   0.72380   0.44760
O          O       0.34180   0.72380   0.27620
O          O       0.34180   0.55240   0.27620
O          O       0.89810   0.41460   0.58540
O          O       0.89810   0.17080   0.58540
O          O       0.89810   0.41460   0.82920
O          O       0.39810   0.58540   0.41460
O          O       0.39810   0.82920   0.41460
O          O       0.39810   0.58540   0.17080
O          O       0.66490   0.33890   0.49420
O          O       0.66490   0.15530   0.66110
O          O       0.66490   0.50580   0.84470
O          O       0.16490   0.66110   0.50580
O          O       0.16490   0.84470   0.33890
O          O       0.16490   0.49420   0.15530
O          O       0.66490   0.15530   0.49420
O          O       0.66490   0.50580   0.66110
O          O       0.66490   0.33890   0.84470
O          O       0.16490   0.84470   0.50580
O          O       0.16490   0.49420   0.33890
O          O       0.16490   0.66110   0.15530
O          O       0.91560   0.41730   0.33820
O          O       0.91560   0.92090   0.58270
O          O       0.91560   0.66180   0.07910
O          O       0.41560   0.58270   0.66180
O          O       0.41560   0.07910   0.41730
O          O       0.41560   0.33820   0.92090
O          O       0.91560   0.92090   0.33820
O          O       0.91560   0.66180   0.58270
O          O       0.91560   0.41730   0.07910
O          O       0.41560   0.07910   0.66180
O          O       0.41560   0.33820   0.41730
O          O       0.41560   0.58270   0.92090
O          O       0.68050   0.40120   0.41110
O          O       0.68050   0.00990   0.59880
O          O       0.68050   0.58890   0.99010
O          O       0.18050   0.59880   0.58890
O          O       0.18050   0.99010   0.40120
O          O       0.18050   0.41110   0.00990
O          O       0.68050   0.00990   0.41110
O          O       0.68050   0.58890   0.59880
O          O       0.68050   0.40120   0.99010
O          O       0.18050   0.99010   0.58890
O          O       0.18050   0.41110   0.40120
O          O       0.18050   0.59880   0.00990
O          O       0.51130   0.46470   0.53540
O          O       0.51130   0.07070   0.53530
O          O       0.51130   0.46460   0.92930
O          O       0.01130   0.53530   0.46460
O          O       0.01130   0.92930   0.46470
O          O       0.01130   0.53540   0.07070
