data_crystal

_cell_length_a    13.37781
_cell_length_b    13.37781
_cell_length_c    20.58200
_cell_angle_alpha 90.00000
_cell_angle_beta  90.00000
_cell_angle_gamma 117.39526

_space_group_name_Hall 'P 1'
_space_group_name_H-M_alt 'P 1'

loop_
_symmetry_equiv_pos_as_xyz
 'x,y,z'

loop_
_atom_site_label
_atom_site_type_symbol
_atom_site_fract_x
_atom_site_fract_y
_atom_site_fract_z
O          O       0.33510   0.16490   0.50000
O          O       0.83510   0.66490   0.50000
O          O       0.66490   0.83510   0.50000
O          O       0.16490   0.33510   0.50000
O          O       0.36520   0.14860   0.62580
O          O       0.85140   0.63480   0.62580
O          O       0.64860   0.86520   0.62580
O          O       0.13480   0.35140   0.62580
O          O       0.63480   0.85140   0.37420
O          O       0.14860   0.36520   0.37420
O          O       0.35140   0.13480   0.37420
O          O       0.86520   0.64860   0.37420
O          O       0.16650   0.02710   0.57520
O          O       0.97290   0.83350   0.57520
O          O       0.52710   0.66650   0.57520
O          O       0.33350   0.47290   0.57520
O          O       0.83350   0.97290   0.42480
O          O       0.02710   0.16650   0.42480
O          O       0.47290   0.33350   0.42480
O          O       0.66650   0.52710   0.42480
O          O       0.25000   0.25000   0.58470
O          O       0.75000   0.75000   0.58470
O          O       0.75000   0.75000   0.41530
O          O       0.25000   0.25000   0.41530
O          O       0.38760   0.11240   0.00000
O          O       0.88760   0.61240   0.00000
O          O       0.61240   0.88760   0.00000
O          O       0.11240   0.38760   0.00000
O          O       0.53100   0.14660   0.90620
O          O       0.85340   0.46900   0.90620
O          O       0.64660   0.03100   0.90620
O          O       0.96900   0.35340   0.90620
O          O       0.46900   0.85340   0.09380
O          O       0.14660   0.53100   0.09380
O          O       0.35340   0.96900   0.09380
O          O       0.03100   0.64660   0.09380
O          O       0.49920   0.31440   0.95570
O          O       0.68560   0.50080   0.95570
O          O       0.81440   0.99920   0.95570
O          O       0.00080   0.18560   0.95570
O          O       0.50080   0.68560   0.04430
O          O       0.31440   0.49920   0.04430
O          O       0.18560   0.00080   0.04430
O          O       0.99920   0.81440   0.04430
O          O       0.34860   0.16480   0.88070
O          O       0.83520   0.65140   0.88070
O          O       0.66480   0.84860   0.88070
O          O       0.15140   0.33520   0.88070
O          O       0.65140   0.83520   0.11930
O          O       0.16480   0.34860   0.11930
O          O       0.33520   0.15140   0.11930
O          O       0.84860   0.66480   0.11930
O          O       0.16200   0.02920   0.82700
O          O       0.97080   0.83800   0.82700
O          O       0.52920   0.66200   0.82700
O          O       0.33800   0.47080   0.82700
O          O       0.83800   0.97080   0.17300
O          O       0.02920   0.16200   0.17300
O          O       0.47080   0.33800   0.17300
O          O       0.66200   0.52920   0.17300
O          O       0.25000   0.25000   0.80410
O          O       0.75000   0.75000   0.80410
O          O       0.75000   0.75000   0.19590
O          O       0.25000   0.25000   0.19590
O          O       0.34270   0.13010   0.75410
O          O       0.86990   0.65730   0.75410
O          O       0.63010   0.84270   0.75410
O          O       0.15730   0.36990   0.75410
O          O       0.65730   0.86990   0.24590
O          O       0.13010   0.34270   0.24590
O          O       0.36990   0.15730   0.24590
O          O       0.84270   0.63010   0.24590
O          O       0.52550   0.13950   0.69690
O          O       0.86050   0.47450   0.69690
O          O       0.63950   0.02550   0.69690
O          O       0.97450   0.36050   0.69690
O          O       0.47450   0.86050   0.30310
O          O       0.13950   0.52550   0.30310
O          O       0.36050   0.97450   0.30310
O          O       0.02550   0.63950   0.30310
O          O       0.49440   0.31580   0.70200
O          O       0.68420   0.50560   0.70200
O          O       0.81580   0.99440   0.70200
O          O       0.00560   0.18420   0.70200
O          O       0.50560   0.68420   0.29800
O          O       0.31580   0.49440   0.29800
O          O       0.18420   0.00560   0.29800
O          O       0.99440   0.81580   0.29800
O          O       0.50040   0.49960   0.74930
O          O       0.99960   0.00040   0.74930
O          O       0.49960   0.50040   0.25070
O          O       0.00040   0.99960   0.25070
O          O       0.51920   0.48080   0.62400
O          O       0.98080   0.01920   0.62400
O          O       0.48080   0.51920   0.37600
O          O       0.01920   0.98080   0.37600
O          O       0.50000   0.50000   0.50000
O          O       0.00000   0.00000   0.50000
O          O       0.52400   0.47600   0.87480
O          O       0.97600   0.02400   0.87480
O          O       0.47600   0.52400   0.12520
O          O       0.02400   0.97600   0.12520
O          O       0.50000   0.50000   0.00000
O          O       0.00000   0.00000   0.00000
O          O       0.63740   0.13740   0.80040
O          O       0.86260   0.36260   0.80040
O          O       0.36260   0.86260   0.19960
O          O       0.13740   0.63740   0.19960
O          O       0.75000   0.25000   0.90310
O          O       0.25000   0.75000   0.09690
O          O       0.75000   0.25000   0.69820
O          O       0.25000   0.75000   0.30180
Si         Si      0.27820   0.14700   0.57100
Si         Si      0.85300   0.72180   0.57100
Si         Si      0.64700   0.77820   0.57100
Si         Si      0.22180   0.35300   0.57100
Si         Si      0.72180   0.85300   0.42900
Si         Si      0.14700   0.27820   0.42900
Si         Si      0.35300   0.22180   0.42900
Si         Si      0.77820   0.64700   0.42900
Si         Si      0.44170   0.18390   0.93520
Si         Si      0.81610   0.55830   0.93520
Si         Si      0.68390   0.94170   0.93520
Si         Si      0.05830   0.31610   0.93520
Si         Si      0.55830   0.81610   0.06480
Si         Si      0.18390   0.44170   0.06480
Si         Si      0.31610   0.05830   0.06480
Si         Si      0.94170   0.68390   0.06480
Si         Si      0.27560   0.14480   0.81530
Si         Si      0.85520   0.72440   0.81530
Si         Si      0.64480   0.77560   0.81530
Si         Si      0.22440   0.35520   0.81530
Si         Si      0.72440   0.85520   0.18470
Si         Si      0.14480   0.27560   0.18470
Si         Si      0.35520   0.22440   0.18470
Si         Si      0.77560   0.64480   0.18470
Si         Si      0.42990   0.18090   0.69460
Si         Si      0.81910   0.57010   0.69460
Si         Si      0.68090   0.92990   0.69460
Si         Si      0.07010   0.31910   0.69460
Si         Si      0.57010   0.81910   0.30540
Si         Si      0.18090   0.42990   0.30540
Si         Si      0.31910   0.07010   0.30540
Si         Si      0.92990   0.68090   0.30540
Si         Si      0.55010   0.44990   0.69410
Si         Si      0.94990   0.05010   0.69410
Si         Si      0.44990   0.55010   0.30590
Si         Si      0.05010   0.94990   0.30590
Si         Si      0.46860   0.53140   0.56980
Si         Si      0.03140   0.96860   0.56980
Si         Si      0.53140   0.46860   0.43020
Si         Si      0.96860   0.03140   0.43020
Si         Si      0.55140   0.44860   0.94680
Si         Si      0.94860   0.05140   0.94680
Si         Si      0.44860   0.55140   0.05320
Si         Si      0.05140   0.94860   0.05320
Si         Si      0.47280   0.52720   0.82120
Si         Si      0.02720   0.97280   0.82120
Si         Si      0.52720   0.47280   0.17880
Si         Si      0.97280   0.02720   0.17880
Si         Si      0.64020   0.14020   0.87840
Si         Si      0.85980   0.35980   0.87840
Si         Si      0.35980   0.85980   0.12160
Si         Si      0.14020   0.64020   0.12160
Si         Si      0.63960   0.13960   0.72220
Si         Si      0.86040   0.36040   0.72220
Si         Si      0.36040   0.86040   0.27780
Si         Si      0.13960   0.63960   0.27780
