data_crystal

_cell_length_a    12.54518
_cell_length_b    12.54518
_cell_length_c    17.97626
_cell_angle_alpha 90.00000
_cell_angle_beta  90.00000
_cell_angle_gamma 101.34498

_space_group_name_Hall 'P 1'
_space_group_name_H-M_alt 'P 1'

loop_
_symmetry_equiv_pos_as_xyz
 'x,y,z'

loop_
_atom_site_label
_atom_site_type_symbol
_atom_site_fract_x
_atom_site_fract_y
_atom_site_fract_z
O          O       0.57839   0.77195   0.34491
O          O       0.22805   0.42161   0.65509
O          O       0.72805   0.92161   0.84491
O          O       0.07839   0.27195   0.15509
O          O       0.42161   0.22805   0.65509
O          O       0.77195   0.57839   0.34491
O          O       0.27195   0.07839   0.15509
O          O       0.92161   0.72805   0.84491
O          O       0.59969   0.83699   0.48346
O          O       0.16301   0.40031   0.51654
O          O       0.66301   0.90031   0.98346
O          O       0.09969   0.33699   0.01654
O          O       0.40031   0.16301   0.51654
O          O       0.83699   0.59969   0.48346
O          O       0.33699   0.09969   0.01654
O          O       0.90031   0.66301   0.98346
O          O       0.44721   0.66697   0.44659
O          O       0.33303   0.55279   0.55341
O          O       0.83303   0.05279   0.94659
O          O       0.94721   0.16697   0.05341
O          O       0.55279   0.33303   0.55341
O          O       0.66697   0.44721   0.44659
O          O       0.16697   0.94721   0.05341
O          O       0.05279   0.83303   0.94659
O          O       0.65309   0.65309   0.44588
O          O       0.34691   0.34691   0.55412
O          O       0.84691   0.84691   0.94588
O          O       0.15309   0.15309   0.05412
O          O       0.23180   0.64342   0.45282
O          O       0.35658   0.76820   0.54718
O          O       0.85658   0.26820   0.95282
O          O       0.73180   0.14342   0.04718
O          O       0.76820   0.35658   0.54718
O          O       0.64342   0.23180   0.45282
O          O       0.14342   0.73180   0.04718
O          O       0.26820   0.85658   0.95282
O          O       0.31446   0.96510   0.56615
O          O       0.03490   0.68554   0.43385
O          O       0.53490   0.18554   0.06615
O          O       0.81446   0.46510   0.93385
O          O       0.68554   0.03490   0.43385
O          O       0.96510   0.31446   0.56615
O          O       0.46510   0.81446   0.93385
O          O       0.18554   0.53490   0.06615
O          O       0.18129   0.79577   0.61912
O          O       0.20423   0.81871   0.38088
O          O       0.70423   0.31871   0.11912
O          O       0.68129   0.29577   0.88088
O          O       0.81871   0.20423   0.38088
O          O       0.79577   0.18129   0.61912
O          O       0.29577   0.68129   0.88088
O          O       0.31871   0.70423   0.11912
O          O       0.37689   0.85303   0.67822
O          O       0.14697   0.62311   0.32178
O          O       0.64697   0.12311   0.17822
O          O       0.87689   0.35303   0.82178
O          O       0.62311   0.14697   0.32178
O          O       0.85303   0.37689   0.67822
O          O       0.35303   0.87689   0.82178
O          O       0.12311   0.64697   0.17822
O          O       0.45201   0.08475   0.23407
O          O       0.91525   0.54799   0.76593
O          O       0.41525   0.04799   0.73407
O          O       0.95201   0.58475   0.26593
O          O       0.54799   0.91525   0.76593
O          O       0.08475   0.45201   0.23407
O          O       0.58475   0.95201   0.26593
O          O       0.04799   0.41525   0.73407
O          O       0.32546   0.00478   0.42130
O          O       0.99522   0.67454   0.57870
O          O       0.49522   0.17454   0.92130
O          O       0.82546   0.50478   0.07870
O          O       0.67454   0.99522   0.57870
O          O       0.00478   0.32546   0.42130
O          O       0.50478   0.82546   0.07870
O          O       0.17454   0.49522   0.92130
O          O       0.50000   0.00000   0.50000
O          O       0.00000   0.50000   0.50000
O          O       0.50000   0.00000   0.00000
O          O       0.00000   0.50000   1.00000
O          O       0.27046   0.96666   0.27977
O          O       0.03334   0.72954   0.72023
O          O       0.53334   0.22954   0.77977
O          O       0.77046   0.46666   0.22023
O          O       0.72954   0.03334   0.72023
O          O       0.96666   0.27046   0.27977
O          O       0.46666   0.77046   0.22023
O          O       0.22954   0.53334   0.77977
O          O       0.40993   0.86479   0.34182
O          O       0.13521   0.59007   0.65818
O          O       0.63521   0.09007   0.84182
O          O       0.90993   0.36479   0.15818
O          O       0.59007   0.13521   0.65818
O          O       0.86479   0.40993   0.34182
O          O       0.36479   0.90993   0.15818
O          O       0.09007   0.63521   0.84182
Si         Si      0.56898   0.73210   0.43031
Si         Si      0.26790   0.43102   0.56969
Si         Si      0.76790   0.93102   0.93031
Si         Si      0.06898   0.23210   0.06969
Si         Si      0.43102   0.26790   0.56969
Si         Si      0.73210   0.56898   0.43031
Si         Si      0.23210   0.06898   0.06969
Si         Si      0.93102   0.76790   0.93031
Si         Si      0.30705   0.84663   0.60269
Si         Si      0.15337   0.69295   0.39731
Si         Si      0.65337   0.19295   0.10269
Si         Si      0.80705   0.34663   0.89731
Si         Si      0.69295   0.15337   0.39731
Si         Si      0.84663   0.30705   0.60269
Si         Si      0.34663   0.80705   0.89731
Si         Si      0.19295   0.65337   0.10269
Si         Si      0.38330   0.03454   0.50064
Si         Si      0.96546   0.61670   0.49936
Si         Si      0.46546   0.11670   0.00064
Si         Si      0.88330   0.53454   0.99936
Si         Si      0.61670   0.96546   0.49936
Si         Si      0.03454   0.38330   0.50064
Si         Si      0.53454   0.88330   0.99936
Si         Si      0.11670   0.46546   0.00064
Si         Si      0.30298   0.91464   0.35644
Si         Si      0.08536   0.69702   0.64356
Si         Si      0.58536   0.19702   0.85644
Si         Si      0.80298   0.41464   0.14356
Si         Si      0.69702   0.08536   0.64356
Si         Si      0.91464   0.30298   0.35644
Si         Si      0.41464   0.80298   0.14356
Si         Si      0.19702   0.58536   0.85644
Si         Si      0.51007   0.83953   0.29347
Si         Si      0.16047   0.48993   0.70653
Si         Si      0.66047   0.98993   0.79347
Si         Si      0.01007   0.33953   0.20653
Si         Si      0.48993   0.16047   0.70653
Si         Si      0.83953   0.51007   0.29347
Si         Si      0.33953   0.01007   0.20653
Si         Si      0.98993   0.66047   0.79347
Si         Si      0.57638   0.07638   0.25000
Si         Si      0.92362   0.42362   0.75000
Si         Si      0.42362   0.92362   0.75000
Si         Si      0.07638   0.57638   0.25000
Si         Si      0.34272   0.65728   0.50000
Si         Si      0.84272   0.15728   0.00000
Si         Si      0.65728   0.34272   0.50000
Si         Si      0.15728   0.84272   1.00000
