data_crystal

_cell_length_a    10.23300
_cell_length_b    12.55800
_cell_length_c    13.54664
_cell_angle_alpha 117.61382
_cell_angle_beta  112.19099
_cell_angle_gamma 90.00000

_space_group_name_Hall 'P 1'
_space_group_name_H-M_alt 'P 1'

loop_
_symmetry_equiv_pos_as_xyz
 'x,y,z'

loop_
_atom_site_label
_atom_site_type_symbol
_atom_site_fract_x
_atom_site_fract_y
_atom_site_fract_z
O          O       0.24720   0.50490   0.10840
O          O       0.86120   0.50490   0.10840
O          O       0.24720   0.10350   0.10840
O          O       0.86120   0.10350   0.10840
O          O       0.75280   0.49510   0.89160
O          O       0.13880   0.49510   0.89160
O          O       0.75280   0.89650   0.89160
O          O       0.13880   0.89650   0.89160
O          O       0.50270   0.50940   0.26280
O          O       0.76010   0.50940   0.26280
O          O       0.50270   0.25340   0.26280
O          O       0.76010   0.25340   0.26280
O          O       0.49730   0.49060   0.73720
O          O       0.23990   0.49060   0.73720
O          O       0.49730   0.74660   0.73720
O          O       0.23990   0.74660   0.73720
O          O       0.29650   0.57070   0.33600
O          O       0.03950   0.57070   0.33600
O          O       0.29650   0.26530   0.33600
O          O       0.03950   0.26530   0.33600
O          O       0.70350   0.42930   0.66400
O          O       0.96050   0.42930   0.66400
O          O       0.70350   0.73470   0.66400
O          O       0.96050   0.73470   0.66400
O          O       0.27950   0.34050   0.18100
O          O       0.90150   0.34050   0.18100
O          O       0.72050   0.65950   0.81900
O          O       0.09850   0.65950   0.81900
O          O       0.62930   0.07110   0.25860
O          O       0.62930   0.68750   0.25860
O          O       0.37070   0.92890   0.74140
O          O       0.37070   0.31250   0.74140
O          O       0.72980   0.28670   0.45960
O          O       0.72980   0.67290   0.45960
O          O       0.27020   0.71330   0.54040
O          O       0.27020   0.32710   0.54040
O          O       0.77490   0.52490   0.54980
O          O       0.22510   0.47510   0.45020
O          O       0.60120   0.37880   0.94580
O          O       0.34460   0.37880   0.94580
O          O       0.60120   0.06700   0.94580
O          O       0.34460   0.06700   0.94580
O          O       0.39880   0.62120   0.05420
O          O       0.65540   0.62120   0.05420
O          O       0.39880   0.93300   0.05420
O          O       0.65540   0.93300   0.05420
O          O       0.41790   0.16790   0.83580
O          O       0.58210   0.83210   0.16420
Si         Si      0.33120   0.48160   0.22160
Si         Si      0.89040   0.48160   0.22160
Si         Si      0.33120   0.24000   0.22160
Si         Si      0.89040   0.24000   0.22160
Si         Si      0.66880   0.51840   0.77840
Si         Si      0.10960   0.51840   0.77840
Si         Si      0.66880   0.76000   0.77840
Si         Si      0.10960   0.76000   0.77840
Si         Si      0.65580   0.21740   0.31160
Si         Si      0.65580   0.59420   0.31160
Si         Si      0.34420   0.78260   0.68840
Si         Si      0.34420   0.40580   0.68840
Si         Si      0.79250   0.66690   0.58500
Si         Si      0.79250   0.41810   0.58500
Si         Si      0.20750   0.33310   0.41500
Si         Si      0.20750   0.58190   0.41500
Si         Si      0.43400   0.30900   0.86800
Si         Si      0.43400   0.05900   0.86800
Si         Si      0.56600   0.69100   0.13200
Si         Si      0.56600   0.94100   0.13200
Si         Si      0.71820   1.00000   1.00000
Si         Si      0.28180   0.00000   0.00000
Si         Si      0.71820   0.50000   1.00000
Si         Si      0.28180   0.50000   0.00000
