data_crystal

_cell_length_a    12.60100
_cell_length_b    12.60100
_cell_length_c    35.74300
_cell_angle_alpha 90.00000
_cell_angle_beta  90.00000
_cell_angle_gamma 120.00000

_space_group_name_Hall 'P 1'
_space_group_name_H-M_alt 'P 1'

loop_
_symmetry_equiv_pos_as_xyz
 'x,y,z'

loop_
_atom_site_label
_atom_site_type_symbol
_atom_site_fract_x
_atom_site_fract_y
_atom_site_fract_z
Si         Si      0.33190   0.41990   0.53530
Si         Si      0.08800   0.66810   0.53530
Si         Si      0.58010   0.91200   0.53530
Si         Si      0.66810   0.58010   0.03530
Si         Si      0.91200   0.33190   0.03530
Si         Si      0.41990   0.08800   0.03530
Si         Si      0.08800   0.41990   0.53530
Si         Si      0.58010   0.66810   0.53530
Si         Si      0.33190   0.91200   0.53530
Si         Si      0.91200   0.58010   0.03530
Si         Si      0.41990   0.33190   0.03530
Si         Si      0.66810   0.08800   0.03530
Si         Si      0.66810   0.58010   0.46470
Si         Si      0.91200   0.33190   0.46470
Si         Si      0.41990   0.08800   0.46470
Si         Si      0.33190   0.41990   0.96470
Si         Si      0.08800   0.66810   0.96470
Si         Si      0.58010   0.91200   0.96470
Si         Si      0.91200   0.58010   0.46470
Si         Si      0.41990   0.33190   0.46470
Si         Si      0.66810   0.08800   0.46470
Si         Si      0.08800   0.41990   0.96470
Si         Si      0.58010   0.66810   0.96470
Si         Si      0.33190   0.91200   0.96470
Si         Si      0.75400   0.75570   0.60780
Si         Si      0.00170   0.24600   0.60780
Si         Si      0.24430   0.99830   0.60780
Si         Si      0.24600   0.24430   0.10780
Si         Si      0.99830   0.75400   0.10780
Si         Si      0.75570   0.00170   0.10780
Si         Si      0.00170   0.75570   0.60780
Si         Si      0.24430   0.24600   0.60780
Si         Si      0.75400   0.99830   0.60780
Si         Si      0.99830   0.24430   0.10780
Si         Si      0.75570   0.75400   0.10780
Si         Si      0.24600   0.00170   0.10780
Si         Si      0.24600   0.24430   0.39220
Si         Si      0.99830   0.75400   0.39220
Si         Si      0.75570   0.00170   0.39220
Si         Si      0.75400   0.75570   0.89220
Si         Si      0.00170   0.24600   0.89220
Si         Si      0.24430   0.99830   0.89220
Si         Si      0.99830   0.24430   0.39220
Si         Si      0.75570   0.75400   0.39220
Si         Si      0.24600   0.00170   0.39220
Si         Si      0.00170   0.75570   0.89220
Si         Si      0.24430   0.24600   0.89220
Si         Si      0.75400   0.99830   0.89220
Si         Si      0.41970   0.32980   0.67840
Si         Si      0.91010   0.58030   0.67840
Si         Si      0.67020   0.08990   0.67840
Si         Si      0.58030   0.67020   0.17840
Si         Si      0.08990   0.41970   0.17840
Si         Si      0.32980   0.91010   0.17840
Si         Si      0.91010   0.32980   0.67840
Si         Si      0.67020   0.58030   0.67840
Si         Si      0.41970   0.08990   0.67840
Si         Si      0.08990   0.67020   0.17840
Si         Si      0.32980   0.41970   0.17840
Si         Si      0.58030   0.91010   0.17840
Si         Si      0.58030   0.67020   0.32160
Si         Si      0.08990   0.41970   0.32160
Si         Si      0.32980   0.91010   0.32160
Si         Si      0.41970   0.32980   0.82160
Si         Si      0.91010   0.58030   0.82160
Si         Si      0.67020   0.08990   0.82160
Si         Si      0.08990   0.67020   0.32160
Si         Si      0.32980   0.41970   0.32160
Si         Si      0.58030   0.91010   0.32160
Si         Si      0.91010   0.32980   0.82160
Si         Si      0.67020   0.58030   0.82160
Si         Si      0.41970   0.08990   0.82160
Si         Si      0.75600   0.75250   0.75000
Si         Si      0.99650   0.24400   0.75000
Si         Si      0.24750   0.00350   0.75000
Si         Si      0.24400   0.24750   0.25000
Si         Si      0.00350   0.75600   0.25000
Si         Si      0.75250   0.99650   0.25000
Si         Si      0.99650   0.75250   0.75000
Si         Si      0.24750   0.24400   0.75000
Si         Si      0.75600   0.00350   0.75000
Si         Si      0.00350   0.24750   0.25000
Si         Si      0.75250   0.75600   0.25000
Si         Si      0.24400   0.99650   0.25000
O          O       0.45590   0.54420   0.54580
O          O       0.08830   0.54410   0.54580
O          O       0.45580   0.91170   0.54580
O          O       0.54410   0.45580   0.04580
O          O       0.91170   0.45590   0.04580
O          O       0.54420   0.08830   0.04580
O          O       0.54410   0.45580   0.45420
O          O       0.91170   0.45590   0.45420
O          O       0.54420   0.08830   0.45420
O          O       0.45590   0.54420   0.95420
O          O       0.08830   0.54410   0.95420
O          O       0.45580   0.91170   0.95420
O          O       0.28970   0.32740   0.57030
O          O       0.03770   0.71030   0.57030
O          O       0.67260   0.96230   0.57030
O          O       0.71030   0.67260   0.07030
O          O       0.96230   0.28970   0.07030
O          O       0.32740   0.03770   0.07030
O          O       0.03770   0.32740   0.57030
O          O       0.67260   0.71030   0.57030
O          O       0.28970   0.96230   0.57030
O          O       0.96230   0.67260   0.07030
O          O       0.32740   0.28970   0.07030
O          O       0.71030   0.03770   0.07030
O          O       0.71030   0.67260   0.42970
O          O       0.96230   0.28970   0.42970
O          O       0.32740   0.03770   0.42970
O          O       0.28970   0.32740   0.92970
O          O       0.03770   0.71030   0.92970
O          O       0.67260   0.96230   0.92970
O          O       0.96230   0.67260   0.42970
O          O       0.32740   0.28970   0.42970
O          O       0.71030   0.03770   0.42970
O          O       0.03770   0.32740   0.92970
O          O       0.67260   0.71030   0.92970
O          O       0.28970   0.96230   0.92970
O          O       0.22530   0.45060   0.52560
O          O       0.22530   0.77470   0.52560
O          O       0.54940   0.77470   0.52560
O          O       0.77470   0.54940   0.02560
O          O       0.77470   0.22530   0.02560
O          O       0.45060   0.22530   0.02560
O          O       0.77470   0.54940   0.47440
O          O       0.77470   0.22530   0.47440
O          O       0.45060   0.22530   0.47440
O          O       0.22530   0.45060   0.97440
O          O       0.22530   0.77470   0.97440
O          O       0.54940   0.77470   0.97440
O          O       0.35500   0.35500   0.50000
O          O       0.00000   0.64500   0.50000
O          O       0.64500   0.00000   0.50000
O          O       0.64500   0.64500   0.00000
O          O       0.00000   0.35500   1.00000
O          O       0.35500   1.00000   0.00000
O          O       0.00000   0.35500   0.50000
O          O       0.64500   0.64500   0.50000
O          O       0.35500   1.00000   0.50000
O          O       0.00000   0.64500   1.00000
O          O       0.35500   0.35500   0.00000
O          O       0.64500   0.00000   0.00000
O          O       0.76420   0.88210   0.62170
O          O       0.11790   0.23580   0.62170
O          O       0.11790   0.88210   0.62170
O          O       0.23580   0.11790   0.12170
O          O       0.88210   0.76420   0.12170
O          O       0.88210   0.11790   0.12170
O          O       0.23580   0.11790   0.37830
O          O       0.88210   0.76420   0.37830
O          O       0.88210   0.11790   0.37830
O          O       0.76420   0.88210   0.87830
O          O       0.11790   0.23580   0.87830
O          O       0.11790   0.88210   0.87830
O          O       0.88890   0.77780   0.59920
O          O       0.88890   0.11110   0.59920
O          O       0.22220   0.11110   0.59920
O          O       0.11110   0.22220   0.09920
O          O       0.11110   0.88890   0.09920
O          O       0.77780   0.88890   0.09920
O          O       0.11110   0.22220   0.40080
O          O       0.11110   0.88890   0.40080
O          O       0.77780   0.88890   0.40080
O          O       0.88890   0.77780   0.90080
O          O       0.88890   0.11110   0.90080
O          O       0.22220   0.11110   0.90080
O          O       0.68900   0.65300   0.63980
O          O       0.96400   0.31100   0.63980
O          O       0.34700   0.03600   0.63980
O          O       0.31100   0.34700   0.13980
O          O       0.03600   0.68900   0.13980
O          O       0.65300   0.96400   0.13980
O          O       0.96400   0.65300   0.63980
O          O       0.34700   0.31100   0.63980
O          O       0.68900   0.03600   0.63980
O          O       0.03600   0.34700   0.13980
O          O       0.65300   0.68900   0.13980
O          O       0.31100   0.96400   0.13980
O          O       0.31100   0.34700   0.36020
O          O       0.03600   0.68900   0.36020
O          O       0.65300   0.96400   0.36020
O          O       0.68900   0.65300   0.86020
O          O       0.96400   0.31100   0.86020
O          O       0.34700   0.03600   0.86020
O          O       0.03600   0.34700   0.36020
O          O       0.65300   0.68900   0.36020
O          O       0.31100   0.96400   0.36020
O          O       0.96400   0.65300   0.86020
O          O       0.34700   0.31100   0.86020
O          O       0.68900   0.03600   0.86020
O          O       0.47040   0.23520   0.68020
O          O       0.76480   0.52960   0.68020
O          O       0.76480   0.23520   0.68020
O          O       0.52960   0.76480   0.18020
O          O       0.23520   0.47040   0.18020
O          O       0.23520   0.76480   0.18020
O          O       0.52960   0.76480   0.31980
O          O       0.23520   0.47040   0.31980
O          O       0.23520   0.76480   0.31980
O          O       0.47040   0.23520   0.81980
O          O       0.76480   0.52960   0.81980
O          O       0.76480   0.23520   0.81980
O          O       0.32900   0.30500   0.71320
O          O       0.97600   0.67100   0.71320
O          O       0.69500   0.02400   0.71320
O          O       0.67100   0.69500   0.21320
O          O       0.02400   0.32900   0.21320
O          O       0.30500   0.97600   0.21320
O          O       0.97600   0.30500   0.71320
O          O       0.69500   0.67100   0.71320
O          O       0.32900   0.02400   0.71320
O          O       0.02400   0.69500   0.21320
O          O       0.30500   0.32900   0.21320
O          O       0.67100   0.97600   0.21320
O          O       0.67100   0.69500   0.28680
O          O       0.02400   0.32900   0.28680
O          O       0.30500   0.97600   0.28680
O          O       0.32900   0.30500   0.78680
O          O       0.97600   0.67100   0.78680
O          O       0.69500   0.02400   0.78680
O          O       0.02400   0.69500   0.28680
O          O       0.30500   0.32900   0.28680
O          O       0.67100   0.97600   0.28680
O          O       0.97600   0.30500   0.78680
O          O       0.69500   0.67100   0.78680
O          O       0.32900   0.02400   0.78680
O          O       0.53150   0.46840   0.68080
O          O       0.93690   0.46850   0.68080
O          O       0.53160   0.06310   0.68080
O          O       0.46850   0.53160   0.18080
O          O       0.06310   0.53150   0.18080
O          O       0.46840   0.93690   0.18080
O          O       0.46850   0.53160   0.31920
O          O       0.06310   0.53150   0.31920
O          O       0.46840   0.93690   0.31920
O          O       0.53150   0.46840   0.81920
O          O       0.93690   0.46850   0.81920
O          O       0.53160   0.06310   0.81920
O          O       0.90120   0.80240   0.75000
O          O       0.90120   0.09880   0.75000
O          O       0.19760   0.09880   0.75000
O          O       0.09880   0.19760   0.25000
O          O       0.09880   0.90120   0.25000
O          O       0.80240   0.90120   0.25000
O          O       0.72990   0.86490   0.75000
O          O       0.13500   0.27010   0.75000
O          O       0.13510   0.86500   0.75000
O          O       0.27010   0.13510   0.25000
O          O       0.86500   0.72990   0.25000
O          O       0.86490   0.13500   0.25000
