data_crystal

_cell_length_a    17.21451
_cell_length_b    17.21451
_cell_length_c    17.21451
_cell_angle_alpha 60.00000
_cell_angle_beta  60.00000
_cell_angle_gamma 60.00000

_space_group_name_Hall 'P 1'
_space_group_name_H-M_alt 'P 1'

loop_
_symmetry_equiv_pos_as_xyz
 'x,y,z'

loop_
_atom_site_label
_atom_site_type_symbol
_atom_site_fract_x
_atom_site_fract_y
_atom_site_fract_z
O          O       0.00000   0.20840   0.79160
O          O       0.20840   0.79160   0.00000
O          O       0.79160   0.00000   0.20840
O          O       0.79160   1.00000   0.50000
O          O       0.20840   0.79160   0.50000
O          O       1.00000   0.20840   0.50000
O          O       0.20840   0.50000   0.00000
O          O       1.00000   0.50000   0.79160
O          O       0.79160   0.50000   0.20840
O          O       0.50000   0.79160   0.20840
O          O       0.50000   1.00000   0.79160
O          O       0.50000   0.20840   0.00000
O          O       1.00000   0.79160   0.20840
O          O       0.20840   0.00000   0.79160
O          O       0.79160   0.20840   0.00000
O          O       0.79160   0.50000   1.00000
O          O       0.20840   0.50000   0.79160
O          O       1.00000   0.50000   0.20840
O          O       0.20840   0.00000   0.50000
O          O       0.00000   0.79160   0.50000
O          O       0.79160   0.20840   0.50000
O          O       0.50000   0.20840   0.79160
O          O       0.50000   0.79160   0.00000
O          O       0.50000   0.00000   0.20840
O          O       0.03310   0.03310   0.81450
O          O       0.03310   0.81450   0.03310
O          O       0.81450   0.03310   0.03310
O          O       0.96690   0.96690   0.38070
O          O       0.18550   0.96690   0.38070
O          O       0.96690   0.18550   0.38070
O          O       0.18550   0.38070   0.96690
O          O       0.96690   0.38070   0.96690
O          O       0.96690   0.38070   0.18550
O          O       0.61930   0.81450   0.03310
O          O       0.61930   0.03310   0.81450
O          O       0.61930   0.03310   0.03310
O          O       0.96690   0.96690   0.18550
O          O       0.96690   0.18550   0.96690
O          O       0.18550   0.96690   0.96690
O          O       0.03310   0.03310   0.61930
O          O       0.81450   0.03310   0.61930
O          O       0.03310   0.81450   0.61930
O          O       0.81450   0.61930   0.03310
O          O       0.03310   0.61930   0.03310
O          O       0.03310   0.61930   0.81450
O          O       0.38070   0.18550   0.96690
O          O       0.38070   0.96690   0.18550
O          O       0.38070   0.96690   0.96690
O          O       0.85710   0.14970   0.85710
O          O       0.14970   0.85710   0.85710
O          O       0.85710   0.85710   0.14970
O          O       0.85030   0.14290   0.36390
O          O       0.14290   0.85030   0.36390
O          O       0.14290   0.14290   0.36390
O          O       0.14290   0.36390   0.14290
O          O       0.14290   0.36390   0.85030
O          O       0.85030   0.36390   0.14290
O          O       0.63610   0.85710   0.14970
O          O       0.63610   0.85710   0.85710
O          O       0.63610   0.14970   0.85710
O          O       0.14290   0.85030   0.14290
O          O       0.85030   0.14290   0.14290
O          O       0.14290   0.14290   0.85030
O          O       0.14970   0.85710   0.63610
O          O       0.85710   0.14970   0.63610
O          O       0.85710   0.85710   0.63610
O          O       0.85710   0.63610   0.85710
O          O       0.85710   0.63610   0.14970
O          O       0.14970   0.63610   0.85710
O          O       0.36390   0.14290   0.85030
O          O       0.36390   0.14290   0.14290
O          O       0.36390   0.85030   0.14290
O          O       0.96770   0.17570   0.67830
O          O       0.17570   0.67830   0.96770
O          O       0.67830   0.96770   0.17570
O          O       0.82430   0.03230   0.32170
O          O       0.32170   0.82430   0.32170
O          O       0.03230   0.32170   0.32170
O          O       0.32170   0.32170   0.03230
O          O       0.03230   0.32170   0.82430
O          O       0.82430   0.32170   0.32170
O          O       0.67830   0.67830   0.17570
O          O       0.67830   0.96770   0.67830
O          O       0.67830   0.17570   0.96770
O          O       0.96770   0.67830   0.17570
O          O       0.17570   0.96770   0.67830
O          O       0.82430   0.32170   0.03230
O          O       0.32170   0.32170   0.82430
O          O       0.32170   0.03230   0.32170
O          O       0.03230   0.82430   0.32170
O          O       0.67830   0.17570   0.67830
O          O       0.67830   0.67830   0.96770
O          O       0.32170   0.03230   0.82430
O          O       0.96770   0.67830   0.67830
O          O       0.17570   0.67830   0.67830
O          O       0.32170   0.82430   0.03230
Si         Si      0.96440   0.14180   0.78540
Si         Si      0.14180   0.78540   0.96440
Si         Si      0.78540   0.96440   0.14180
Si         Si      0.85820   0.03560   0.39160
Si         Si      0.21460   0.85820   0.39160
Si         Si      0.03560   0.21460   0.39160
Si         Si      0.21460   0.39160   0.03560
Si         Si      0.03560   0.39160   0.85820
Si         Si      0.85820   0.39160   0.21460
Si         Si      0.60840   0.78540   0.14180
Si         Si      0.60840   0.96440   0.78540
Si         Si      0.60840   0.14180   0.96440
Si         Si      0.96440   0.78540   0.14180
Si         Si      0.14180   0.96440   0.78540
Si         Si      0.78540   0.14180   0.96440
Si         Si      0.85820   0.39160   0.03560
Si         Si      0.21460   0.39160   0.85820
Si         Si      0.03560   0.39160   0.21460
Si         Si      0.21460   0.03560   0.39160
Si         Si      0.03560   0.85820   0.39160
Si         Si      0.85820   0.21460   0.39160
Si         Si      0.60840   0.14180   0.78540
Si         Si      0.60840   0.78540   0.96440
Si         Si      0.60840   0.96440   0.14180
Si         Si      0.03560   0.85820   0.21460
Si         Si      0.85820   0.21460   0.03560
Si         Si      0.21460   0.03560   0.85820
Si         Si      0.14180   0.96440   0.60840
Si         Si      0.78540   0.14180   0.60840
Si         Si      0.96440   0.78540   0.60840
Si         Si      0.78540   0.60840   0.96440
Si         Si      0.96440   0.60840   0.14180
Si         Si      0.14180   0.60840   0.78540
Si         Si      0.39160   0.21460   0.85820
Si         Si      0.39160   0.03560   0.21460
Si         Si      0.39160   0.85820   0.03560
Si         Si      0.03560   0.21460   0.85820
Si         Si      0.85820   0.03560   0.21460
Si         Si      0.21460   0.85820   0.03560
Si         Si      0.14180   0.60840   0.96440
Si         Si      0.78540   0.60840   0.14180
Si         Si      0.96440   0.60840   0.78540
Si         Si      0.78540   0.96440   0.60840
Si         Si      0.96440   0.14180   0.60840
Si         Si      0.14180   0.78540   0.60840
Si         Si      0.39160   0.85820   0.21460
Si         Si      0.39160   0.21460   0.03560
Si         Si      0.39160   0.03560   0.85820
