data_crystal

_cell_length_a    7.54100
_cell_length_b    12.48125
_cell_length_c    12.48125
_cell_angle_alpha 69.91649
_cell_angle_beta  72.41664
_cell_angle_gamma 72.41664

_space_group_name_Hall 'P 1'
_space_group_name_H-M_alt 'P 1'

loop_
_symmetry_equiv_pos_as_xyz
 'x,y,z'

loop_
_atom_site_label
_atom_site_type_symbol
_atom_site_fract_x
_atom_site_fract_y
_atom_site_fract_z
O          O       0.07000   0.58810   0.77170
O          O       0.42980   0.22830   0.41190
O          O       0.07000   0.77170   0.58810
O          O       0.42980   0.41190   0.22830
O          O       0.93000   0.41190   0.22830
O          O       0.57020   0.77170   0.58810
O          O       0.93000   0.22830   0.41190
O          O       0.57020   0.58810   0.77170
O          O       0.05910   0.36590   0.86450
O          O       0.28950   0.13550   0.63410
O          O       0.05910   0.86450   0.36590
O          O       0.28950   0.63410   0.13550
O          O       0.94090   0.63410   0.13550
O          O       0.71050   0.86450   0.36590
O          O       0.94090   0.13550   0.63410
O          O       0.71050   0.36590   0.86450
O          O       0.34290   0.44090   0.87330
O          O       0.65710   0.12670   0.55910
O          O       0.34290   0.87330   0.44090
O          O       0.65710   0.55910   0.12670
O          O       0.00000   0.50000   0.00000
O          O       0.50000   0.00000   0.50000
O          O       0.00000   0.00000   0.50000
O          O       0.50000   0.50000   0.00000
O          O       0.10630   0.80190   0.98550
O          O       0.89370   0.01450   0.19810
O          O       0.10630   0.98550   0.80190
O          O       0.89370   0.19810   0.01450
O          O       0.00000   0.79060   0.20940
O          O       0.00000   0.20940   0.79060
O          O       0.02980   0.79590   0.79590
O          O       0.62160   0.20410   0.20410
O          O       0.97020   0.20410   0.20410
O          O       0.37840   0.79590   0.79590
O          O       0.75290   0.74710   0.74710
O          O       0.24710   0.25290   0.25290
Si         Si      0.11800   0.47380   0.87740
Si         Si      0.46920   0.12260   0.52620
Si         Si      0.11800   0.87740   0.47380
Si         Si      0.46920   0.52620   0.12260
Si         Si      0.88200   0.52620   0.12260
Si         Si      0.53080   0.87740   0.47380
Si         Si      0.88200   0.12260   0.52620
Si         Si      0.53080   0.47380   0.87740
Si         Si      0.08430   0.71530   0.11610
Si         Si      0.91570   0.88390   0.28470
Si         Si      0.08430   0.11610   0.71530
Si         Si      0.91570   0.28470   0.88390
Si         Si      0.98080   0.72570   0.72570
Si         Si      0.43220   0.27430   0.27430
Si         Si      0.01920   0.27430   0.27430
Si         Si      0.56780   0.72570   0.72570
Si         Si      0.15530   0.84470   0.84470
Si         Si      0.84470   0.15530   0.15530
