data_crystal

_cell_length_a    12.91600
_cell_length_b    12.91600
_cell_length_c    26.54300
_cell_angle_alpha 90.00000
_cell_angle_beta  90.00000
_cell_angle_gamma 120.00000

_space_group_name_Hall 'P 1'
_space_group_name_H-M_alt 'P 1'

loop_
_symmetry_equiv_pos_as_xyz
 'x,y,z'

loop_
_atom_site_label
_atom_site_type_symbol
_atom_site_fract_x
_atom_site_fract_y
_atom_site_fract_z
Si         Si      0.58400   0.91740   0.90030
Si         Si      0.33340   0.41600   0.90030
Si         Si      0.08260   0.66660   0.90030
Si         Si      0.33340   0.91740   0.90030
Si         Si      0.08260   0.41600   0.90030
Si         Si      0.58400   0.66660   0.90030
Si         Si      0.41600   0.08260   0.09970
Si         Si      0.66660   0.58400   0.09970
Si         Si      0.91740   0.33340   0.09970
Si         Si      0.66660   0.08260   0.09970
Si         Si      0.91740   0.58400   0.09970
Si         Si      0.41600   0.33340   0.09970
Si         Si      0.58400   0.91733   0.19970
Si         Si      0.33333   0.41600   0.19970
Si         Si      0.08267   0.66667   0.19970
Si         Si      0.33333   0.91733   0.19970
Si         Si      0.08267   0.41600   0.19970
Si         Si      0.58400   0.66667   0.19970
Si         Si      0.41600   0.08267   0.80030
Si         Si      0.66667   0.58400   0.80030
Si         Si      0.91733   0.33333   0.80030
Si         Si      0.66667   0.08267   0.80030
Si         Si      0.91733   0.58400   0.80030
Si         Si      0.41600   0.33333   0.80030
Si         Si      0.58480   0.91620   0.59990
Si         Si      0.33140   0.41520   0.59990
Si         Si      0.08380   0.66860   0.59990
Si         Si      0.33140   0.91620   0.59990
Si         Si      0.08380   0.41520   0.59990
Si         Si      0.58480   0.66860   0.59990
Si         Si      0.41520   0.08380   0.40010
Si         Si      0.66860   0.58480   0.40010
Si         Si      0.91620   0.33140   0.40010
Si         Si      0.66860   0.08380   0.40010
Si         Si      0.91620   0.58480   0.40010
Si         Si      0.41520   0.33140   0.40010
Si         Si      0.75000   0.00000   0.00000
Si         Si      0.25000   0.25000   1.00000
Si         Si      1.00000   0.75000   0.00000
Si         Si      0.25000   1.00000   1.00000
Si         Si      1.00000   0.25000   0.00000
Si         Si      0.75000   0.75000   1.00000
Si         Si      0.74920   0.00000   0.29990
Si         Si      0.25080   0.25080   0.29990
Si         Si      1.00000   0.74920   0.29990
Si         Si      0.25080   1.00000   0.29990
Si         Si      1.00000   0.25080   0.29990
Si         Si      0.74920   0.74920   0.29990
Si         Si      0.25080   1.00000   0.70010
Si         Si      0.74920   0.74920   0.70010
Si         Si      1.00000   0.25080   0.70010
Si         Si      0.74920   0.00000   0.70010
Si         Si      1.00000   0.74920   0.70010
Si         Si      0.25080   0.25080   0.70010
Si         Si      0.74980   0.00000   0.50000
Si         Si      0.25020   0.25020   0.50000
Si         Si      1.00000   0.74980   0.50000
Si         Si      0.25020   1.00000   0.50000
Si         Si      1.00000   0.25020   0.50000
Si         Si      0.74980   0.74980   0.50000
O          O       0.57250   0.78630   0.89360
O          O       0.21380   0.42750   0.89360
O          O       0.21370   0.78620   0.89360
O          O       0.42750   0.21370   0.10640
O          O       0.78620   0.57250   0.10640
O          O       0.78630   0.21380   0.10640
O          O       0.11940   0.88070   0.70680
O          O       0.76130   0.88060   0.70680
O          O       0.11930   0.23870   0.70680
O          O       0.88060   0.11930   0.29320
O          O       0.23870   0.11940   0.29320
O          O       0.88070   0.76130   0.29320
O          O       0.76330   0.88160   0.49320
O          O       0.11830   0.23670   0.49320
O          O       0.11840   0.88170   0.49320
O          O       0.23670   0.11840   0.50680
O          O       0.88170   0.76330   0.50680
O          O       0.88160   0.11830   0.50680
O          O       0.33460   0.31060   0.34960
O          O       0.97600   0.66540   0.34960
O          O       0.68940   0.02400   0.34960
O          O       0.97600   0.31060   0.34960
O          O       0.68940   0.66540   0.34960
O          O       0.33460   0.02400   0.34960
O          O       0.66540   0.68940   0.65040
O          O       0.02400   0.33460   0.65040
O          O       0.31060   0.97600   0.65040
O          O       0.02400   0.68940   0.65040
O          O       0.31060   0.33460   0.65040
O          O       0.66540   0.97600   0.65040
O          O       0.66530   0.97610   0.54930
O          O       0.31080   0.33470   0.54930
O          O       0.02390   0.68920   0.54930
O          O       0.31080   0.97610   0.54930
O          O       0.02390   0.33470   0.54930
O          O       0.66530   0.68920   0.54930
O          O       0.33470   0.02390   0.45070
O          O       0.68920   0.66530   0.45070
O          O       0.97610   0.31080   0.45070
O          O       0.68920   0.02390   0.45070
O          O       0.97610   0.66530   0.45070
O          O       0.33470   0.31080   0.45070
O          O       0.64310   0.99990   0.14970
O          O       0.35680   0.35690   0.14970
O          O       0.00010   0.64320   0.14970
O          O       0.35680   0.99990   0.14970
O          O       0.00010   0.35690   0.14970
O          O       0.64310   0.64320   0.14970
O          O       0.35690   0.00010   0.85030
O          O       0.64320   0.64310   0.85030
O          O       0.99990   0.35680   0.85030
O          O       0.64320   0.00010   0.85030
O          O       0.99990   0.64310   0.85030
O          O       0.35690   0.35680   0.85030
O          O       0.55510   0.77750   0.59990
O          O       0.22240   0.44490   0.59990
O          O       0.22250   0.77760   0.59990
O          O       0.44490   0.22250   0.40010
O          O       0.77760   0.55510   0.40010
O          O       0.77750   0.22240   0.40010
O          O       0.66610   0.97650   0.95050
O          O       0.31040   0.33390   0.95050
O          O       0.02350   0.68960   0.95050
O          O       0.31040   0.97650   0.95050
O          O       0.02350   0.33390   0.95050
O          O       0.66610   0.68960   0.95050
O          O       0.33390   0.02350   0.04950
O          O       0.68960   0.66610   0.04950
O          O       0.97650   0.31040   0.04950
O          O       0.68960   0.02350   0.04950
O          O       0.97650   0.66610   0.04950
O          O       0.33390   0.31040   0.04950
O          O       0.54720   0.09440   0.79340
O          O       0.54720   0.45280   0.79340
O          O       0.90560   0.45280   0.79340
O          O       0.45280   0.90560   0.20660
O          O       0.45280   0.54720   0.20660
O          O       0.09440   0.54720   0.20660
O          O       0.46060   0.53940   0.59990
O          O       0.07880   0.53940   0.59990
O          O       0.46060   0.92120   0.59990
O          O       0.53940   0.46060   0.40010
O          O       0.92120   0.46060   0.40010
O          O       0.53940   0.07880   0.40010
O          O       0.66690   0.97640   0.24970
O          O       0.30950   0.33310   0.24970
O          O       0.02360   0.69050   0.24970
O          O       0.30950   0.97640   0.24970
O          O       0.02360   0.33310   0.24970
O          O       0.66690   0.69050   0.24970
O          O       0.33310   0.02360   0.75030
O          O       0.69050   0.66690   0.75030
O          O       0.97640   0.30950   0.75030
O          O       0.69050   0.02360   0.75030
O          O       0.97640   0.66690   0.75030
O          O       0.33310   0.30950   0.75030
O          O       0.11970   0.88040   0.30690
O          O       0.76070   0.88030   0.30690
O          O       0.11960   0.23930   0.30690
O          O       0.88030   0.11960   0.69310
O          O       0.23930   0.11970   0.69310
O          O       0.88040   0.76070   0.69310
O          O       0.57210   0.78610   0.19290
O          O       0.21400   0.42790   0.19290
O          O       0.21390   0.78600   0.19290
O          O       0.42790   0.21390   0.80710
O          O       0.78600   0.57210   0.80710
O          O       0.78610   0.21400   0.80710
O          O       0.09480   0.54740   0.90700
O          O       0.45260   0.90520   0.90700
O          O       0.45260   0.54740   0.90700
O          O       0.90520   0.45260   0.09300
O          O       0.54740   0.09480   0.09300
O          O       0.54740   0.45260   0.09300
O          O       0.88180   0.11820   0.99320
O          O       0.23640   0.11820   0.99320
O          O       0.88180   0.76360   0.99320
O          O       0.11820   0.88180   0.00680
O          O       0.76360   0.88180   0.00680
O          O       0.11820   0.23640   0.00680
