data_crystal

_cell_length_a    12.55900
_cell_length_b    12.55900
_cell_length_c    41.02600
_cell_angle_alpha 90.00000
_cell_angle_beta  90.00000
_cell_angle_gamma 120.00000

_space_group_name_Hall 'P 1'
_space_group_name_H-M_alt 'P 1'

loop_
_symmetry_equiv_pos_as_xyz
 'x,y,z'

loop_
_atom_site_label
_atom_site_type_symbol
_atom_site_fract_x
_atom_site_fract_y
_atom_site_fract_z
Si         Si      0.41980   0.08790   0.93700
Si         Si      0.66810   0.58020   0.93700
Si         Si      0.91210   0.33190   0.93700
Si         Si      0.58020   0.91210   0.43700
Si         Si      0.33190   0.41980   0.43700
Si         Si      0.08790   0.66810   0.43700
Si         Si      0.66810   0.08790   0.93700
Si         Si      0.91210   0.58020   0.93700
Si         Si      0.41980   0.33190   0.93700
Si         Si      0.33190   0.91210   0.43700
Si         Si      0.08790   0.41980   0.43700
Si         Si      0.58020   0.66810   0.43700
Si         Si      0.58020   0.91210   0.06300
Si         Si      0.33190   0.41980   0.06300
Si         Si      0.08790   0.66810   0.06300
Si         Si      0.41980   0.08790   0.56300
Si         Si      0.66810   0.58020   0.56300
Si         Si      0.91210   0.33190   0.56300
Si         Si      0.33190   0.91210   0.06300
Si         Si      0.08790   0.41980   0.06300
Si         Si      0.58020   0.66810   0.06300
Si         Si      0.66810   0.08790   0.56300
Si         Si      0.91210   0.58020   0.56300
Si         Si      0.41980   0.33190   0.56300
Si         Si      0.42100   0.33660   0.12500
Si         Si      0.91560   0.57900   0.12500
Si         Si      0.66340   0.08440   0.12500
Si         Si      0.57900   0.66340   0.62500
Si         Si      0.08440   0.42100   0.62500
Si         Si      0.33660   0.91560   0.62500
Si         Si      0.91560   0.33660   0.12500
Si         Si      0.66340   0.57900   0.12500
Si         Si      0.42100   0.08440   0.12500
Si         Si      0.08440   0.66340   0.62500
Si         Si      0.33660   0.42100   0.62500
Si         Si      0.57900   0.91560   0.62500
Si         Si      0.57900   0.66340   0.87500
Si         Si      0.08440   0.42100   0.87500
Si         Si      0.33660   0.91560   0.87500
Si         Si      0.42100   0.33660   0.37500
Si         Si      0.91560   0.57900   0.37500
Si         Si      0.66340   0.08440   0.37500
Si         Si      0.08440   0.66340   0.87500
Si         Si      0.33660   0.42100   0.87500
Si         Si      0.57900   0.91560   0.87500
Si         Si      0.91560   0.33660   0.37500
Si         Si      0.66340   0.57900   0.37500
Si         Si      0.42100   0.08440   0.37500
Si         Si      0.42120   0.08470   0.81300
Si         Si      0.66350   0.57880   0.81300
Si         Si      0.91530   0.33650   0.81300
Si         Si      0.57880   0.91530   0.31300
Si         Si      0.33650   0.42120   0.31300
Si         Si      0.08470   0.66350   0.31300
Si         Si      0.66350   0.08470   0.81300
Si         Si      0.91530   0.57880   0.81300
Si         Si      0.42120   0.33650   0.81300
Si         Si      0.33650   0.91530   0.31300
Si         Si      0.08470   0.42120   0.31300
Si         Si      0.57880   0.66350   0.31300
Si         Si      0.57880   0.91530   0.18700
Si         Si      0.33650   0.42120   0.18700
Si         Si      0.08470   0.66350   0.18700
Si         Si      0.42120   0.08470   0.68700
Si         Si      0.66350   0.57880   0.68700
Si         Si      0.91530   0.33650   0.68700
Si         Si      0.33650   0.91530   0.18700
Si         Si      0.08470   0.42120   0.18700
Si         Si      0.57880   0.66350   0.18700
Si         Si      0.66350   0.08470   0.68700
Si         Si      0.91530   0.57880   0.68700
Si         Si      0.42120   0.33650   0.68700
Si         Si      0.42340   0.33710   0.25000
Si         Si      0.91370   0.57660   0.25000
Si         Si      0.66290   0.08630   0.25000
Si         Si      0.57660   0.66290   0.75000
Si         Si      0.08630   0.42340   0.75000
Si         Si      0.33710   0.91370   0.75000
Si         Si      0.91370   0.33710   0.25000
Si         Si      0.66290   0.57660   0.25000
Si         Si      0.42340   0.08630   0.25000
Si         Si      0.08630   0.66290   0.75000
Si         Si      0.33710   0.42340   0.75000
Si         Si      0.57660   0.91370   0.75000
Si         Si      0.24500   0.24500   1.00000
Si         Si      0.00000   0.75500   0.00000
Si         Si      0.75500   1.00000   1.00000
Si         Si      0.75500   0.75500   0.50000
Si         Si      0.00000   0.24500   0.50000
Si         Si      0.24500   0.00000   0.50000
Si         Si      0.00000   0.24500   0.00000
Si         Si      0.75500   0.75500   1.00000
Si         Si      0.24500   0.00000   1.00000
Si         Si      0.00000   0.75500   0.50000
Si         Si      0.24500   0.24500   0.50000
Si         Si      0.75500   1.00000   0.50000
O          O       0.29890   0.33990   0.03000
O          O       0.04100   0.70110   0.03000
O          O       0.66010   0.95900   0.03000
O          O       0.70110   0.66010   0.53000
O          O       0.95900   0.29890   0.53000
O          O       0.33990   0.04100   0.53000
O          O       0.04100   0.33990   0.03000
O          O       0.66010   0.70110   0.03000
O          O       0.29890   0.95900   0.03000
O          O       0.95900   0.66010   0.53000
O          O       0.33990   0.29890   0.53000
O          O       0.70110   0.04100   0.53000
O          O       0.70110   0.66010   0.97000
O          O       0.95900   0.29890   0.97000
O          O       0.33990   0.04100   0.97000
O          O       0.29890   0.33990   0.47000
O          O       0.04100   0.70110   0.47000
O          O       0.66010   0.95900   0.47000
O          O       0.95900   0.66010   0.97000
O          O       0.33990   0.29890   0.97000
O          O       0.70110   0.04100   0.97000
O          O       0.04100   0.33990   0.47000
O          O       0.66010   0.70110   0.47000
O          O       0.29890   0.95900   0.47000
O          O       0.22800   0.11400   0.01070
O          O       0.88600   0.77200   0.01070
O          O       0.88600   0.11400   0.01070
O          O       0.77200   0.88600   0.51070
O          O       0.11400   0.22800   0.51070
O          O       0.11400   0.88600   0.51070
O          O       0.77200   0.88600   0.98930
O          O       0.11400   0.22800   0.98930
O          O       0.11400   0.88600   0.98930
O          O       0.22800   0.11400   0.48930
O          O       0.88600   0.77200   0.48930
O          O       0.88600   0.11400   0.48930
O          O       0.56960   0.43030   0.25000
O          O       0.86070   0.43040   0.25000
O          O       0.56970   0.13930   0.25000
O          O       0.43040   0.56970   0.75000
O          O       0.13930   0.56960   0.75000
O          O       0.43030   0.86070   0.75000
O          O       0.36420   0.36000   0.21790
O          O       0.99580   0.63580   0.21790
O          O       0.64000   0.00420   0.21790
O          O       0.63580   0.64000   0.71790
O          O       0.00420   0.36420   0.71790
O          O       0.36000   0.99580   0.71790
O          O       0.99580   0.36000   0.21790
O          O       0.64000   0.63580   0.21790
O          O       0.36420   0.00420   0.21790
O          O       0.00420   0.64000   0.71790
O          O       0.36000   0.36420   0.71790
O          O       0.63580   0.99580   0.71790
O          O       0.63580   0.64000   0.78210
O          O       0.00420   0.36420   0.78210
O          O       0.36000   0.99580   0.78210
O          O       0.36420   0.36000   0.28210
O          O       0.99580   0.63580   0.28210
O          O       0.64000   0.00420   0.28210
O          O       0.00420   0.64000   0.78210
O          O       0.36000   0.36420   0.78210
O          O       0.63580   0.99580   0.78210
O          O       0.99580   0.36000   0.28210
O          O       0.64000   0.63580   0.28210
O          O       0.36420   0.00420   0.28210
O          O       0.39390   0.19700   0.25000
O          O       0.80310   0.60610   0.25000
O          O       0.80300   0.19690   0.25000
O          O       0.60610   0.80300   0.75000
O          O       0.19690   0.39390   0.75000
O          O       0.19700   0.80310   0.75000
O          O       0.35530   0.98330   0.90960
O          O       0.62800   0.64470   0.90960
O          O       0.01670   0.37200   0.90960
O          O       0.64470   0.01670   0.40960
O          O       0.37200   0.35530   0.40960
O          O       0.98330   0.62800   0.40960
O          O       0.62800   0.98330   0.90960
O          O       0.01670   0.64470   0.90960
O          O       0.35530   0.37200   0.90960
O          O       0.37200   0.01670   0.40960
O          O       0.98330   0.35530   0.40960
O          O       0.64470   0.62800   0.40960
O          O       0.64470   0.01670   0.09040
O          O       0.37200   0.35530   0.09040
O          O       0.98330   0.62800   0.09040
O          O       0.35530   0.98330   0.59040
O          O       0.62800   0.64470   0.59040
O          O       0.01670   0.37200   0.59040
O          O       0.37200   0.01670   0.09040
O          O       0.98330   0.35530   0.09040
O          O       0.64470   0.62800   0.09040
O          O       0.62800   0.98330   0.59040
O          O       0.01670   0.64470   0.59040
O          O       0.35530   0.37200   0.59040
O          O       0.42540   0.21270   0.92500
O          O       0.78730   0.57460   0.92500
O          O       0.78730   0.21270   0.92500
O          O       0.57460   0.78730   0.42500
O          O       0.21270   0.42540   0.42500
O          O       0.21270   0.78730   0.42500
O          O       0.57460   0.78730   0.07500
O          O       0.21270   0.42540   0.07500
O          O       0.21270   0.78730   0.07500
O          O       0.42540   0.21270   0.57500
O          O       0.78730   0.57460   0.57500
O          O       0.78730   0.21270   0.57500
O          O       0.55700   0.11400   0.94390
O          O       0.55700   0.44300   0.94390
O          O       0.88600   0.44300   0.94390
O          O       0.44300   0.88600   0.44390
O          O       0.44300   0.55700   0.44390
O          O       0.11400   0.55700   0.44390
O          O       0.44300   0.88600   0.05610
O          O       0.44300   0.55700   0.05610
O          O       0.11400   0.55700   0.05610
O          O       0.55700   0.11400   0.55610
O          O       0.55700   0.44300   0.55610
O          O       0.88600   0.44300   0.55610
O          O       0.56560   0.43440   0.12840
O          O       0.86880   0.43440   0.12840
O          O       0.56560   0.13120   0.12840
O          O       0.43440   0.56560   0.62840
O          O       0.13120   0.56560   0.62840
O          O       0.43440   0.86880   0.62840
O          O       0.43440   0.56560   0.87160
O          O       0.13120   0.56560   0.87160
O          O       0.43440   0.86880   0.87160
O          O       0.56560   0.43440   0.37160
O          O       0.86880   0.43440   0.37160
O          O       0.56560   0.13120   0.37160
O          O       0.34710   0.35830   0.15390
O          O       0.01120   0.65290   0.15390
O          O       0.64170   0.98880   0.15390
O          O       0.65290   0.64170   0.65390
O          O       0.98880   0.34710   0.65390
O          O       0.35830   0.01120   0.65390
O          O       0.01120   0.35830   0.15390
O          O       0.64170   0.65290   0.15390
O          O       0.34710   0.98880   0.15390
O          O       0.98880   0.64170   0.65390
O          O       0.35830   0.34710   0.65390
O          O       0.65290   0.01120   0.65390
O          O       0.65290   0.64170   0.84610
O          O       0.98880   0.34710   0.84610
O          O       0.35830   0.01120   0.84610
O          O       0.34710   0.35830   0.34610
O          O       0.01120   0.65290   0.34610
O          O       0.64170   0.98880   0.34610
O          O       0.98880   0.64170   0.84610
O          O       0.35830   0.34710   0.84610
O          O       0.65290   0.01120   0.84610
O          O       0.01120   0.35830   0.34610
O          O       0.64170   0.65290   0.34610
O          O       0.34710   0.98880   0.34610
O          O       0.39770   0.19890   0.12750
O          O       0.80120   0.60230   0.12750
O          O       0.80110   0.19880   0.12750
O          O       0.60230   0.80110   0.62750
O          O       0.19880   0.39770   0.62750
O          O       0.19890   0.80120   0.62750
O          O       0.60230   0.80110   0.87250
O          O       0.19880   0.39770   0.87250
O          O       0.19890   0.80120   0.87250
O          O       0.39770   0.19890   0.37250
O          O       0.80120   0.60230   0.37250
O          O       0.80110   0.19880   0.37250
O          O       0.56650   0.13300   0.81390
O          O       0.56650   0.43350   0.81390
O          O       0.86700   0.43350   0.81390
O          O       0.43350   0.86700   0.31390
O          O       0.43350   0.56650   0.31390
O          O       0.13300   0.56650   0.31390
O          O       0.43350   0.86700   0.18610
O          O       0.43350   0.56650   0.18610
O          O       0.13300   0.56650   0.18610
O          O       0.56650   0.13300   0.68610
O          O       0.56650   0.43350   0.68610
O          O       0.86700   0.43350   0.68610
O          O       0.39800   0.19900   0.80970
O          O       0.80100   0.60200   0.80970
O          O       0.80100   0.19900   0.80970
O          O       0.60200   0.80100   0.30970
O          O       0.19900   0.39800   0.30970
O          O       0.19900   0.80100   0.30970
O          O       0.60200   0.80100   0.19030
O          O       0.19900   0.39800   0.19030
O          O       0.19900   0.80100   0.19030
O          O       0.39800   0.19900   0.69030
O          O       0.80100   0.60200   0.69030
O          O       0.80100   0.19900   0.69030
