data_crystal

_cell_length_a    9.85000
_cell_length_b    13.67200
_cell_length_c    13.67200
_cell_angle_alpha 120.00000
_cell_angle_beta  90.00000
_cell_angle_gamma 90.00000

_space_group_name_Hall 'P 1'
_space_group_name_H-M_alt 'P 1'

loop_
_symmetry_equiv_pos_as_xyz
 'x,y,z'

loop_
_atom_site_label
_atom_site_type_symbol
_atom_site_fract_x
_atom_site_fract_y
_atom_site_fract_z
Si         Si      0.90760   0.55970   0.66610
Si         Si      0.90760   0.10640   0.44030
Si         Si      0.90760   0.33390   0.89360
Si         Si      0.40760   0.44030   0.33390
Si         Si      0.40760   0.89360   0.55970
Si         Si      0.40760   0.66610   0.10640
Si         Si      0.90760   0.10640   0.66610
Si         Si      0.90760   0.33390   0.44030
Si         Si      0.90760   0.55970   0.89360
Si         Si      0.40760   0.89360   0.33390
Si         Si      0.40760   0.66610   0.55970
Si         Si      0.40760   0.44030   0.10640
Si         Si      0.09240   0.44030   0.33390
Si         Si      0.09240   0.89360   0.55970
Si         Si      0.09240   0.66610   0.10640
Si         Si      0.59240   0.55970   0.66610
Si         Si      0.59240   0.10640   0.44030
Si         Si      0.59240   0.33390   0.89360
Si         Si      0.09240   0.89360   0.33390
Si         Si      0.09240   0.66610   0.55970
Si         Si      0.09240   0.44030   0.10640
Si         Si      0.59240   0.10640   0.66610
Si         Si      0.59240   0.33390   0.44030
Si         Si      0.59240   0.55970   0.89360
O          O       0.93440   0.43120   0.56870
O          O       0.93440   0.13750   0.56880
O          O       0.93440   0.43130   0.86250
O          O       0.43440   0.56880   0.43130
O          O       0.43440   0.86250   0.43120
O          O       0.43440   0.56870   0.13750
O          O       0.06560   0.56880   0.43130
O          O       0.06560   0.86250   0.43120
O          O       0.06560   0.56870   0.13750
O          O       0.56560   0.43120   0.56870
O          O       0.56560   0.13750   0.56880
O          O       0.56560   0.43130   0.86250
O          O       0.00000   0.64350   0.64350
O          O       0.00000   0.00000   0.35650
O          O       1.00000   0.35650   0.00000
O          O       0.50000   0.35650   0.35650
O          O       0.50000   0.00000   0.64350
O          O       0.50000   0.64350   0.00000
O          O       1.00000   0.00000   0.64350
O          O       1.00000   0.35650   0.35650
O          O       0.00000   0.64350   0.00000
O          O       0.50000   0.00000   0.35650
O          O       0.50000   0.64350   0.64350
O          O       0.50000   0.35650   0.00000
O          O       0.75000   0.59060   0.66580
O          O       0.75000   0.07520   0.40940
O          O       0.75000   0.33420   0.92480
O          O       0.25000   0.40940   0.33420
O          O       0.25000   0.92480   0.59060
O          O       0.25000   0.66580   0.07520
O          O       0.75000   0.07520   0.66580
O          O       0.75000   0.33420   0.40940
O          O       0.75000   0.59060   0.92480
O          O       0.25000   0.92480   0.33420
O          O       0.25000   0.66580   0.59060
O          O       0.25000   0.40940   0.07520
O          O       0.94640   0.57410   0.78700
O          O       0.94640   0.21290   0.42590
O          O       0.94640   0.21300   0.78710
O          O       0.44640   0.42590   0.21300
O          O       0.44640   0.78710   0.57410
O          O       0.44640   0.78700   0.21290
O          O       0.05360   0.42590   0.21300
O          O       0.05360   0.78710   0.57410
O          O       0.05360   0.78700   0.21290
O          O       0.55360   0.57410   0.78700
O          O       0.55360   0.21290   0.42590
O          O       0.55360   0.21300   0.78710
