data_crystal

_cell_length_a    5.08000
_cell_length_b    13.03538
_cell_length_c    13.03538
_cell_angle_alpha 101.47221
_cell_angle_beta  90.00000
_cell_angle_gamma 90.00000

_space_group_name_Hall 'P 1'
_space_group_name_H-M_alt 'P 1'

loop_
_symmetry_equiv_pos_as_xyz
 'x,y,z'

loop_
_atom_site_label
_atom_site_type_symbol
_atom_site_fract_x
_atom_site_fract_y
_atom_site_fract_z
O          O       0.12940   0.47040   0.83800
O          O       0.87060   0.83800   0.47040
O          O       0.87060   0.16200   0.52960
O          O       0.12940   0.52960   0.16200
O          O       0.63030   0.41390   0.81230
O          O       0.36970   0.81230   0.41390
O          O       0.36970   0.18770   0.58610
O          O       0.63030   0.58610   0.18770
O          O       0.45410   0.50000   0.00000
O          O       0.54590   0.00000   0.50000
O          O       0.49720   0.61480   0.85520
O          O       0.50280   0.85520   0.61480
O          O       0.50280   0.14480   0.38520
O          O       0.49720   0.38520   0.14480
O          O       0.13910   0.75850   0.93230
O          O       0.86090   0.93230   0.75850
O          O       0.86090   0.06770   0.24150
O          O       0.13910   0.24150   0.06770
O          O       0.50000   0.79680   0.79680
O          O       0.50000   0.20320   0.20320
O          O       0.63770   0.78480   0.98900
O          O       0.36230   0.98900   0.78480
O          O       0.36230   0.01100   0.21520
O          O       0.63770   0.21520   0.01100
O          O       1.00000   0.90330   0.09670
O          O       1.00000   0.09670   0.90330
O          O       0.96960   0.70260   0.10560
O          O       0.03040   0.10560   0.70260
O          O       0.03040   0.89440   0.29740
O          O       0.96960   0.29740   0.89440
O          O       1.00000   0.69390   0.30610
O          O       0.00000   0.30610   0.69390
Si         Si      0.42850   0.49950   0.87630
Si         Si      0.57150   0.87630   0.49950
Si         Si      0.57150   0.12370   0.50050
Si         Si      0.42850   0.50050   0.12370
Si         Si      0.44090   0.73880   0.89320
Si         Si      0.55910   0.89320   0.73880
Si         Si      0.55910   0.10680   0.26120
Si         Si      0.44090   0.26120   0.10680
Si         Si      0.93870   0.78700   0.03040
Si         Si      0.06130   0.03040   0.78700
Si         Si      0.06130   0.96960   0.21300
Si         Si      0.93870   0.21300   0.96960
Si         Si      0.93070   0.62830   0.19030
Si         Si      0.06930   0.19030   0.62830
Si         Si      0.06930   0.80970   0.37170
Si         Si      0.93070   0.37170   0.80970
