data_crystal

_cell_length_a    7.04250
_cell_length_b    7.04250
_cell_length_c    17.47500
_cell_angle_alpha 90.00000
_cell_angle_beta  90.00000
_cell_angle_gamma 103.20895

_space_group_name_Hall 'P 1'
_space_group_name_H-M_alt 'P 1'

loop_
_symmetry_equiv_pos_as_xyz
 'x,y,z'

loop_
_atom_site_label
_atom_site_type_symbol
_atom_site_fract_x
_atom_site_fract_y
_atom_site_fract_z
O          O       0.28880   0.27680   0.15690
O          O       0.27680   0.28880   0.84310
O          O       0.72320   0.71120   0.34310
O          O       0.71120   0.72320   0.65690
O          O       0.10750   0.21610   0.29200
O          O       0.21610   0.10750   0.70800
O          O       0.78390   0.89250   0.20800
O          O       0.89250   0.78390   0.79200
O          O       0.16350   0.55250   0.22460
O          O       0.55250   0.16350   0.77540
O          O       0.44750   0.83650   0.27540
O          O       0.83650   0.44750   0.72460
O          O       0.90780   0.25600   0.16800
O          O       0.25600   0.90780   0.83200
O          O       0.74400   0.09220   0.33200
O          O       0.09220   0.74400   0.66800
O          O       0.03810   0.24050   0.96090
O          O       0.24050   0.03810   0.03910
O          O       0.75950   0.96190   0.53910
O          O       0.96190   0.75950   0.46090
O          O       0.06550   0.54930   0.86990
O          O       0.54930   0.06550   0.13010
O          O       0.45070   0.93450   0.63010
O          O       0.93450   0.45070   0.36990
O          O       0.90750   0.18890   0.82180
O          O       0.18890   0.90750   0.17820
O          O       0.81110   0.09250   0.67820
O          O       0.09250   0.81110   0.32180
O          O       0.98700   0.86120   0.93650
O          O       0.86120   0.98700   0.06350
O          O       0.13880   0.01300   0.56350
O          O       0.01300   0.13880   0.43650
Si         Si      0.11660   0.32120   0.20970
Si         Si      0.32120   0.11660   0.79030
Si         Si      0.67880   0.88340   0.29030
Si         Si      0.88340   0.67880   0.70970
Si         Si      0.07240   0.32300   0.87480
Si         Si      0.32300   0.07240   0.12520
Si         Si      0.67700   0.92760   0.62520
Si         Si      0.92760   0.67700   0.37480
Si         Si      0.04950   0.77190   0.85800
Si         Si      0.77190   0.04950   0.14200
Si         Si      0.22810   0.95050   0.64200
Si         Si      0.95050   0.22810   0.35800
Si         Si      0.22300   0.77700   0.25000
Si         Si      0.77700   0.22300   0.75000
Si         Si      0.03150   0.03150   0.00000
Si         Si      0.96850   0.96850   0.50000
