data_crystal

_cell_length_a    7.40100
_cell_length_b    12.34113
_cell_length_c    12.34113
_cell_angle_alpha 91.26105
_cell_angle_beta  106.69791
_cell_angle_gamma 106.69791

_space_group_name_Hall 'P 1'
_space_group_name_H-M_alt 'P 1'

loop_
_symmetry_equiv_pos_as_xyz
 'x,y,z'

loop_
_atom_site_label
_atom_site_type_symbol
_atom_site_fract_x
_atom_site_fract_y
_atom_site_fract_z
O          O       0.89910   0.07950   0.75450
O          O       0.10090   0.24550   0.92050
O          O       0.10090   0.92050   0.24550
O          O       0.89910   0.75450   0.07950
O          O       0.79180   0.86850   0.66070
O          O       0.20820   0.33930   0.13150
O          O       0.20820   0.13150   0.33930
O          O       0.79180   0.66070   0.86850
O          O       0.52180   0.96970   0.65530
O          O       0.47820   0.34470   0.03030
O          O       0.47820   0.03030   0.34470
O          O       0.52180   0.65530   0.96970
O          O       0.76220   0.03310   0.53170
O          O       0.23780   0.46830   0.96690
O          O       0.23780   0.96690   0.46830
O          O       0.76220   0.53170   0.03310
O          O       0.16230   0.24200   0.50900
O          O       0.83770   0.49100   0.75800
O          O       0.83770   0.75800   0.49100
O          O       0.16230   0.50900   0.24200
O          O       0.06220   0.30310   0.30310
O          O       0.93780   0.69690   0.69690
O          O       0.85040   0.11020   0.35040
O          O       0.14960   0.64960   0.88980
O          O       0.14960   0.88980   0.64960
O          O       0.85040   0.35040   0.11020
O          O       0.30970   0.10910   0.64850
O          O       0.69030   0.35150   0.89090
O          O       0.69030   0.89090   0.35150
O          O       0.30970   0.64850   0.10910
O          O       0.50000   0.32800   0.67200
O          O       0.50000   0.67200   0.32800
O          O       0.16680   0.25790   0.72230
O          O       0.83320   0.27770   0.74210
O          O       0.83320   0.74210   0.27770
O          O       0.16680   0.72230   0.25790
Si         Si      0.74360   0.98770   0.65050
Si         Si      0.25640   0.34950   0.01230
Si         Si      0.25640   0.01230   0.34950
Si         Si      0.74360   0.65050   0.98770
Si         Si      0.07080   0.19670   0.37530
Si         Si      0.92920   0.62470   0.80330
Si         Si      0.92920   0.80330   0.62470
Si         Si      0.07080   0.37530   0.19670
Si         Si      0.30490   0.98400   0.60540
Si         Si      0.69510   0.39460   0.01600
Si         Si      0.69510   0.01600   0.39460
Si         Si      0.30490   0.60540   0.98400
Si         Si      0.28460   0.23400   0.63780
Si         Si      0.71540   0.36220   0.76600
Si         Si      0.71540   0.76600   0.36220
Si         Si      0.28460   0.63780   0.23400
Si         Si      1.00000   0.21510   0.78490
Si         Si      1.00000   0.78490   0.21510
