data_crystal

_cell_length_a    4.94530
_cell_length_b    16.43882
_cell_length_c    22.78303
_cell_angle_alpha 90.00000
_cell_angle_beta  90.00000
_cell_angle_gamma 90.00000

_space_group_name_Hall 'P 1'
_space_group_name_H-M_alt 'P 1'

loop_
_symmetry_equiv_pos_as_xyz
 'x,y,z'

loop_
_atom_site_label
_atom_site_type_symbol
_atom_site_fract_x
_atom_site_fract_y
_atom_site_fract_z
Si         Si      0.73670   0.55487   0.74589
Si         Si      0.26330   0.44513   0.74589
Si         Si      0.76330   0.05487   0.75411
Si         Si      0.23670   0.94513   0.75411
Si         Si      0.26330   0.44513   0.25411
Si         Si      0.73670   0.55487   0.25411
Si         Si      0.23670   0.94513   0.24589
Si         Si      0.76330   0.05487   0.24589
Si         Si      0.89062   0.72364   0.71424
Si         Si      0.10938   0.27636   0.71424
Si         Si      0.60938   0.22364   0.78576
Si         Si      0.39062   0.77636   0.78576
Si         Si      0.10938   0.27636   0.28576
Si         Si      0.89062   0.72364   0.28576
Si         Si      0.39062   0.77636   0.21424
Si         Si      0.60938   0.22364   0.21424
Si         Si      0.91119   0.40797   0.93101
Si         Si      0.08881   0.59203   0.93101
Si         Si      0.58881   0.90797   0.56899
Si         Si      0.41119   0.09203   0.56899
Si         Si      0.08881   0.59203   0.06899
Si         Si      0.91119   0.40797   0.06899
Si         Si      0.41119   0.09203   0.43101
Si         Si      0.58881   0.90797   0.43101
Si         Si      0.60331   0.64646   0.86472
Si         Si      0.39669   0.35354   0.86472
Si         Si      0.89669   0.14646   0.63528
Si         Si      0.10331   0.85354   0.63528
Si         Si      0.39669   0.35354   0.13528
Si         Si      0.60331   0.64646   0.13528
Si         Si      0.10331   0.85354   0.36472
Si         Si      0.89669   0.14646   0.36472
O          O       0.62594   0.58964   0.80743
O          O       0.37406   0.41036   0.80743
O          O       0.87406   0.08964   0.69257
O          O       0.12594   0.91036   0.69257
O          O       0.37406   0.41036   0.19257
O          O       0.62594   0.58964   0.19257
O          O       0.12594   0.91036   0.30743
O          O       0.87406   0.08964   0.30743
O          O       0.00000   0.50000   0.75790
O          O       0.50000   0.00000   0.74210
O          O       0.00000   0.50000   0.24210
O          O       0.50000   0.00000   0.25790
O          O       0.50000   0.50000   0.71756
O          O       0.00000   0.00000   0.78244
O          O       0.50000   0.50000   0.28244
O          O       0.00000   0.00000   0.21756
O          O       0.81230   0.62972   0.70335
O          O       0.18770   0.37028   0.70335
O          O       0.68770   0.12972   0.79665
O          O       0.31230   0.87028   0.79665
O          O       0.18770   0.37028   0.29665
O          O       0.81230   0.62972   0.29665
O          O       0.31230   0.87028   0.20335
O          O       0.68770   0.12972   0.20335
O          O       0.12731   0.72845   0.76266
O          O       0.87269   0.27155   0.76266
O          O       0.37269   0.22845   0.73734
O          O       0.62731   0.77155   0.73734
O          O       0.87269   0.27155   0.23734
O          O       0.12731   0.72845   0.23734
O          O       0.62731   0.77155   0.26266
O          O       0.37269   0.22845   0.26266
O          O       0.99563   0.76493   0.65431
O          O       0.00437   0.23507   0.65431
O          O       0.50437   0.26493   0.84569
O          O       0.49563   0.73507   0.84569
O          O       0.00437   0.23507   0.34569
O          O       0.99563   0.76493   0.34569
O          O       0.49563   0.73507   0.15431
O          O       0.50437   0.26493   0.15431
O          O       0.00000   0.50000   0.91680
O          O       0.50000   0.00000   0.58320
O          O       0.00000   0.50000   0.08320
O          O       0.50000   0.00000   0.41680
O          O       0.10302   0.34652   0.89489
O          O       0.89698   0.65348   0.89489
O          O       0.39698   0.84652   0.60511
O          O       0.60302   0.15348   0.60511
O          O       0.89698   0.65348   0.10511
O          O       0.10302   0.34652   0.10511
O          O       0.60302   0.15348   0.39489
O          O       0.39698   0.84652   0.39489
O          O       0.60243   0.39402   0.91104
O          O       0.39757   0.60598   0.91104
O          O       0.89757   0.89402   0.58896
O          O       0.10243   0.10598   0.58896
O          O       0.39757   0.60598   0.08896
O          O       0.60243   0.39402   0.08896
O          O       0.10243   0.10598   0.41104
O          O       0.89757   0.89402   0.41104
O          O       0.94237   0.38960   1.00000
O          O       0.05763   0.61040   1.00000
O          O       0.55763   0.88960   0.50000
O          O       0.44237   0.11040   0.50000
