data_crystal

_cell_length_a    7.62900
_cell_length_b    11.48399
_cell_length_c    11.48399
_cell_angle_alpha 71.60430
_cell_angle_beta  80.03301
_cell_angle_gamma 80.03301

_space_group_name_Hall 'P 1'
_space_group_name_H-M_alt 'P 1'

loop_
_symmetry_equiv_pos_as_xyz
 'x,y,z'

loop_
_atom_site_label
_atom_site_type_symbol
_atom_site_fract_x
_atom_site_fract_y
_atom_site_fract_z
O          O       0.84180   0.56480   0.31340
O          O       0.15820   0.68660   0.43520
O          O       0.15820   0.43520   0.68660
O          O       0.84180   0.31340   0.56480
O          O       0.68490   0.54090   0.54090
O          O       0.31510   0.45910   0.45910
O          O       0.74450   0.76110   0.39150
O          O       0.25550   0.60850   0.23890
O          O       0.25550   0.23890   0.60850
O          O       0.74450   0.39150   0.76110
O          O       0.50000   0.64680   0.35320
O          O       0.50000   0.35320   0.64680
O          O       0.07000   0.50340   0.13660
O          O       0.93000   0.86340   0.49660
O          O       0.93000   0.49660   0.86340
O          O       0.07000   0.13660   0.50340
O          O       0.94880   0.33050   0.33050
O          O       0.05120   0.66950   0.66950
O          O       0.73340   0.46220   0.16780
O          O       0.26660   0.83220   0.53780
O          O       0.26660   0.53780   0.83220
O          O       0.73340   0.16780   0.46220
O          O       0.32520   0.00050   0.63230
O          O       0.67480   0.36770   0.99950
O          O       0.67480   0.99950   0.36770
O          O       0.32520   0.63230   0.00050
O          O       0.59140   0.83770   0.58230
O          O       0.40860   0.41770   0.16230
O          O       0.40860   0.16230   0.41770
O          O       0.59140   0.58230   0.83770
O          O       0.33880   0.76720   0.76720
O          O       0.66120   0.23280   0.23280
Si         Si      0.73510   0.86550   0.45950
Si         Si      0.26490   0.54050   0.13450
Si         Si      0.26490   0.13450   0.54050
Si         Si      0.73510   0.45950   0.86550
Si         Si      0.69280   0.62820   0.40000
Si         Si      0.30720   0.60000   0.37180
Si         Si      0.30720   0.37180   0.60000
Si         Si      0.69280   0.40000   0.62820
Si         Si      0.89810   0.46550   0.23690
Si         Si      0.10190   0.76310   0.53450
Si         Si      0.10190   0.53450   0.76310
Si         Si      0.89810   0.23690   0.46550
Si         Si      0.38050   0.85930   0.63010
Si         Si      0.61950   0.36990   0.14070
Si         Si      0.61950   0.14070   0.36990
Si         Si      0.38050   0.63010   0.85930
