data_crystal

_cell_length_a    12.48474
_cell_length_b    14.15748
_cell_length_c    14.15748
_cell_angle_alpha 80.15989
_cell_angle_beta  64.14983
_cell_angle_gamma 64.14983

_space_group_name_Hall 'P 1'
_space_group_name_H-M_alt 'P 1'

loop_
_symmetry_equiv_pos_as_xyz
 'x,y,z'

loop_
_atom_site_label
_atom_site_type_symbol
_atom_site_fract_x
_atom_site_fract_y
_atom_site_fract_z
O          O       0.44932   0.08907   0.71465
O          O       0.44932   0.71465   0.08907
O          O       0.55068   0.91093   0.28535
O          O       0.55068   0.28535   0.91093
O          O       0.30034   0.29038   0.72090
O          O       0.30034   0.72090   0.29038
O          O       0.69966   0.70962   0.27910
O          O       0.69966   0.27910   0.70962
O          O       0.53870   0.21575   0.57725
O          O       0.53870   0.57725   0.21575
O          O       0.46130   0.78425   0.42275
O          O       0.46130   0.42275   0.78425
O          O       0.93408   0.24719   0.56365
O          O       0.93408   0.56365   0.24719
O          O       0.06592   0.75281   0.43635
O          O       0.06592   0.43635   0.75281
O          O       0.72707   0.40081   0.54497
O          O       0.72707   0.54497   0.40081
O          O       0.27293   0.59919   0.45503
O          O       0.27293   0.45503   0.59919
O          O       0.77504   0.20218   0.52558
O          O       0.77504   0.52558   0.20218
O          O       0.22496   0.79782   0.47442
O          O       0.22496   0.47442   0.79782
O          O       0.11422   0.32037   0.46441
O          O       0.11422   0.46441   0.32037
O          O       0.88578   0.67963   0.53559
O          O       0.88578   0.53559   0.67963
O          O       0.16261   0.14808   0.57424
O          O       0.16261   0.57424   0.14808
O          O       0.83739   0.85192   0.42576
O          O       0.83739   0.42576   0.85192
O          O       0.68419   0.23864   0.38212
O          O       0.68419   0.38212   0.23864
O          O       0.31581   0.76136   0.61788
O          O       0.31581   0.61788   0.76136
O          O       0.74256   0.05269   0.46633
O          O       0.74256   0.46633   0.05269
O          O       0.25744   0.94731   0.53367
O          O       0.25744   0.53367   0.94731
O          O       0.34082   0.01392   0.64032
O          O       0.34082   0.64032   0.01392
O          O       0.65918   0.98608   0.35968
O          O       0.65918   0.35968   0.98608
O          O       0.47423   0.89406   0.75002
O          O       0.47423   0.75002   0.89406
O          O       0.52577   0.10594   0.24998
O          O       0.52577   0.24998   0.10594
O          O       0.59562   0.94774   0.56050
O          O       0.59562   0.56050   0.94774
O          O       0.40438   0.05226   0.43950
O          O       0.40438   0.43950   0.05226
O          O       0.50000   0.22681   0.77319
O          O       0.50000   0.77319   0.22681
O          O       0.00000   0.32881   0.67119
O          O       0.00000   0.67119   0.32881
O          O       0.47415   0.41650   0.41650
O          O       0.52585   0.58350   0.58350
O          O       0.25257   0.42901   0.42901
O          O       0.74743   0.57099   0.57099
O          O       0.54319   0.27661   0.27661
O          O       0.45681   0.72339   0.72339
O          O       0.32238   0.28866   0.28866
O          O       0.67762   0.71134   0.71134
Si         Si      0.46435   0.98672   0.66640
Si         Si      0.46435   0.66640   0.98672
Si         Si      0.53565   0.01328   0.33360
Si         Si      0.53565   0.33360   0.01328
Si         Si      0.44687   0.20525   0.69741
Si         Si      0.44687   0.69741   0.20525
Si         Si      0.55313   0.79475   0.30259
Si         Si      0.55313   0.30259   0.79475
Si         Si      0.29150   0.04019   0.54727
Si         Si      0.29150   0.54727   0.04019
Si         Si      0.70850   0.95981   0.45273
Si         Si      0.70850   0.45273   0.95981
Si         Si      0.78359   0.28372   0.58580
Si         Si      0.78359   0.58580   0.28372
Si         Si      0.21641   0.71628   0.41420
Si         Si      0.21641   0.41420   0.71628
Si         Si      0.05330   0.26111   0.56761
Si         Si      0.05330   0.56761   0.26111
Si         Si      0.94670   0.73889   0.43239
Si         Si      0.94670   0.43239   0.73889
Si         Si      0.68545   0.17670   0.48838
Si         Si      0.68545   0.48838   0.17670
Si         Si      0.31455   0.82330   0.51162
Si         Si      0.31455   0.51162   0.82330
Si         Si      0.59525   0.32951   0.32951
Si         Si      0.40475   0.67049   0.67049
Si         Si      0.20132   0.37570   0.37570
Si         Si      0.79868   0.62430   0.62430
Si         Si      0.52144   0.76979   0.76979
Si         Si      0.47856   0.23021   0.23021
Si         Si      0.31791   0.47506   0.47506
Si         Si      0.68209   0.52494   0.52494
