data_crystal

_cell_length_a    11.84800
_cell_length_b    15.15117
_cell_length_c    15.15117
_cell_angle_alpha 90.00000
_cell_angle_beta  90.00000
_cell_angle_gamma 90.00000

_space_group_name_Hall 'P 1'
_space_group_name_H-M_alt 'P 1'

loop_
_symmetry_equiv_pos_as_xyz
 'x,y,z'

loop_
_atom_site_label
_atom_site_type_symbol
_atom_site_fract_x
_atom_site_fract_y
_atom_site_fract_z
Si         Si      0.18749   0.09107   0.73201
Si         Si      0.18749   0.90893   0.26799
Si         Si      0.18749   0.59107   0.76799
Si         Si      0.18749   0.40893   0.23201
Si         Si      0.18749   0.26799   0.09107
Si         Si      0.18749   0.73201   0.90893
Si         Si      0.18749   0.23201   0.59107
Si         Si      0.18749   0.76799   0.40893
Si         Si      0.81251   0.90893   0.26799
Si         Si      0.81251   0.09107   0.73201
Si         Si      0.81251   0.40893   0.23201
Si         Si      0.81251   0.59107   0.76799
Si         Si      0.81251   0.73201   0.90893
Si         Si      0.81251   0.26799   0.09107
Si         Si      0.81251   0.76799   0.40893
Si         Si      0.81251   0.23201   0.59107
Si         Si      0.36828   0.02320   0.85792
Si         Si      0.36828   0.97680   0.14208
Si         Si      0.36828   0.52320   0.64208
Si         Si      0.36828   0.47680   0.35792
Si         Si      0.36828   0.14208   0.02320
Si         Si      0.36828   0.85792   0.97680
Si         Si      0.36828   0.35792   0.52320
Si         Si      0.36828   0.64208   0.47680
Si         Si      0.63172   0.97680   0.14208
Si         Si      0.63172   0.02320   0.85792
Si         Si      0.63172   0.47680   0.35792
Si         Si      0.63172   0.52320   0.64208
Si         Si      0.63172   0.85792   0.97680
Si         Si      0.63172   0.14208   0.02320
Si         Si      0.63172   0.64208   0.47680
Si         Si      0.63172   0.35792   0.52320
Si         Si      0.00000   0.03087   0.31941
Si         Si      0.00000   0.96913   0.68059
Si         Si      0.00000   0.53087   0.18059
Si         Si      0.00000   0.46913   0.81941
Si         Si      1.00000   0.68059   0.03087
Si         Si      0.00000   0.31941   0.96913
Si         Si      0.00000   0.81941   0.53087
Si         Si      0.00000   0.18059   0.46913
Si         Si      0.00000   0.16973   0.18076
Si         Si      1.00000   0.83027   0.81924
Si         Si      1.00000   0.66973   0.31924
Si         Si      0.00000   0.33027   0.68076
Si         Si      0.00000   0.81924   0.16973
Si         Si      0.00000   0.18076   0.83027
Si         Si      0.00000   0.68076   0.66973
Si         Si      0.00000   0.31924   0.33027
O          O       0.11136   0.12203   0.81451
O          O       0.11136   0.87797   0.18549
O          O       0.11136   0.62203   0.68549
O          O       0.11136   0.37797   0.31451
O          O       0.11136   0.18549   0.12203
O          O       0.11136   0.81451   0.87797
O          O       0.11136   0.31451   0.62203
O          O       0.11136   0.68549   0.37797
O          O       0.88864   0.87797   0.18549
O          O       0.88864   0.12203   0.81451
O          O       0.88864   0.37797   0.31451
O          O       0.88864   0.62203   0.68549
O          O       0.88864   0.81451   0.87797
O          O       0.88864   0.18549   0.12203
O          O       0.88864   0.68549   0.37797
O          O       0.88864   0.31451   0.62203
O          O       0.29469   0.03776   0.76969
O          O       0.29469   0.96224   0.23031
O          O       0.29469   0.53776   0.73031
O          O       0.29469   0.46224   0.26969
O          O       0.29469   0.23031   0.03776
O          O       0.29469   0.76969   0.96224
O          O       0.29469   0.26969   0.53776
O          O       0.29469   0.73031   0.46224
O          O       0.70531   0.96224   0.23031
O          O       0.70531   0.03776   0.76969
O          O       0.70531   0.46224   0.26969
O          O       0.70531   0.53776   0.73031
O          O       0.70531   0.76969   0.96224
O          O       0.70531   0.23031   0.03776
O          O       0.70531   0.73031   0.46224
O          O       0.70531   0.26969   0.53776
O          O       0.22718   0.17593   0.67593
O          O       0.22718   0.82407   0.32407
O          O       0.22718   0.67593   0.82407
O          O       0.22718   0.32407   0.17593
O          O       0.77282   0.82407   0.32407
O          O       0.77282   0.17593   0.67593
O          O       0.77282   0.32407   0.17593
O          O       0.77282   0.67593   0.82407
O          O       0.11157   0.02880   0.66949
O          O       0.11157   0.97120   0.33051
O          O       0.11157   0.52880   0.83051
O          O       0.11157   0.47120   0.16949
O          O       0.11157   0.33051   0.02880
O          O       0.11157   0.66949   0.97120
O          O       0.11157   0.16949   0.52880
O          O       0.11157   0.83051   0.47120
O          O       0.88843   0.97120   0.33051
O          O       0.88843   0.02880   0.66949
O          O       0.88843   0.47120   0.16949
O          O       0.88843   0.52880   0.83051
O          O       0.88843   0.66949   0.97120
O          O       0.88843   0.33051   0.02880
O          O       0.88843   0.83051   0.47120
O          O       0.88843   0.16949   0.52880
O          O       0.00000   0.07136   0.22106
O          O       0.00000   0.92864   0.77894
O          O       0.00000   0.57136   0.27894
O          O       0.00000   0.42864   0.72106
O          O       0.00000   0.77894   0.07136
O          O       0.00000   0.22106   0.92864
O          O       0.00000   0.72106   0.57136
O          O       0.00000   0.27894   0.42864
O          O       0.00000   0.10984   0.39016
O          O       0.00000   0.89016   0.60984
O          O       0.00000   0.60984   0.10984
O          O       1.00000   0.39016   0.89016
O          O       0.00000   0.23872   0.26128
O          O       0.00000   0.76128   0.73872
O          O       0.00000   0.73872   0.23872
O          O       1.00000   0.26128   0.76128
O          O       0.33986   0.09964   0.92834
O          O       0.33986   0.90036   0.07166
O          O       0.33986   0.59964   0.57166
O          O       0.33986   0.40036   0.42834
O          O       0.33986   0.07166   0.09964
O          O       0.33986   0.92834   0.90036
O          O       0.33986   0.42834   0.59964
O          O       0.33986   0.57166   0.40036
O          O       0.66014   0.90036   0.07166
O          O       0.66014   0.09964   0.92834
O          O       0.66014   0.40036   0.42834
O          O       0.66014   0.59964   0.57166
O          O       0.66014   0.92834   0.90036
O          O       0.66014   0.07166   0.09964
O          O       0.66014   0.57166   0.40036
O          O       0.66014   0.42834   0.59964
O          O       0.50000   0.02738   0.83236
O          O       0.50000   0.97262   0.16764
O          O       0.50000   0.52738   0.66764
O          O       0.50000   0.47262   0.33236
O          O       0.50000   0.16764   0.02738
O          O       0.50000   0.83236   0.97262
O          O       0.50000   0.33236   0.52738
O          O       0.50000   0.66764   0.47262
