data_crystal

_cell_length_a    13.74700
_cell_length_b    13.85908
_cell_length_c    18.32900
_cell_angle_alpha 90.00000
_cell_angle_beta  90.00000
_cell_angle_gamma 119.73283

_space_group_name_Hall 'P 1'
_space_group_name_H-M_alt 'P 1'

loop_
_symmetry_equiv_pos_as_xyz
 'x,y,z'

loop_
_atom_site_label
_atom_site_type_symbol
_atom_site_fract_x
_atom_site_fract_y
_atom_site_fract_z
O          O       0.14730   0.00000   0.50000
O          O       0.85270   0.00000   0.50000
O          O       0.64730   0.00000   0.00000
O          O       0.35270   0.00000   1.00000
O          O       0.95470   0.90940   0.43080
O          O       0.54530   0.09060   0.93080
O          O       0.04530   0.09060   0.56920
O          O       0.45470   0.90940   0.06920
O          O       0.14190   0.01980   0.35630
O          O       0.87790   0.01980   0.35630
O          O       0.62210   0.98020   0.85630
O          O       0.35810   0.98020   0.85630
O          O       0.85810   0.98020   0.64370
O          O       0.12210   0.98020   0.64370
O          O       0.37790   0.01980   0.14370
O          O       0.64190   0.01980   0.14370
O          O       0.08900   0.82780   0.41330
O          O       0.73880   0.82780   0.41330
O          O       0.76120   0.17220   0.91330
O          O       0.41100   0.17220   0.91330
O          O       0.91100   0.17220   0.58670
O          O       0.26120   0.17220   0.58670
O          O       0.23880   0.82780   0.08670
O          O       0.58900   0.82780   0.08670
O          O       0.29250   0.08500   0.25000
O          O       0.79250   0.08500   0.25000
O          O       0.70750   0.91500   0.75000
O          O       0.20750   0.91500   0.75000
O          O       0.33900   0.19500   0.37490
O          O       0.85600   0.19500   0.37490
O          O       0.64400   0.80500   0.87490
O          O       0.16100   0.80500   0.87490
O          O       0.66100   0.80500   0.62510
O          O       0.14400   0.80500   0.62510
O          O       0.35600   0.19500   0.12510
O          O       0.83900   0.19500   0.12510
O          O       0.19690   0.20220   0.28310
O          O       0.00530   0.20220   0.28310
O          O       0.49470   0.79780   0.78310
O          O       0.30310   0.79780   0.78310
O          O       0.80310   0.79780   0.71690
O          O       0.99470   0.79780   0.71690
O          O       0.50530   0.20220   0.21690
O          O       0.69690   0.20220   0.21690
O          O       0.42420   0.30080   0.49890
O          O       0.87660   0.30080   0.49890
O          O       0.62340   0.69920   0.99890
O          O       0.07580   0.69920   0.99890
O          O       0.57580   0.69920   0.50110
O          O       0.12340   0.69920   0.50110
O          O       0.37660   0.30080   0.00110
O          O       0.92420   0.30080   0.00110
O          O       0.45010   0.41480   0.37860
O          O       0.96470   0.41480   0.37860
O          O       0.53530   0.58520   0.87860
O          O       0.04990   0.58520   0.87860
O          O       0.54990   0.58520   0.62140
O          O       0.03530   0.58520   0.62140
O          O       0.46470   0.41480   0.12140
O          O       0.95010   0.41480   0.12140
O          O       0.55490   0.30060   0.39700
O          O       0.74570   0.30060   0.39700
O          O       0.75430   0.69940   0.89700
O          O       0.94510   0.69940   0.89700
O          O       0.44510   0.69940   0.60300
O          O       0.25430   0.69940   0.60300
O          O       0.24570   0.30060   0.10300
O          O       0.05490   0.30060   0.10300
O          O       0.42010   0.36900   0.63200
O          O       0.94890   0.36900   0.63200
O          O       0.55110   0.63100   0.13200
O          O       0.07990   0.63100   0.13200
O          O       0.57990   0.63100   0.36800
O          O       0.05110   0.63100   0.36800
O          O       0.44890   0.36900   0.86800
O          O       0.92010   0.36900   0.86800
O          O       0.27220   0.35340   0.53340
O          O       0.08120   0.35340   0.53340
O          O       0.41880   0.64660   0.03340
O          O       0.22780   0.64660   0.03340
O          O       0.72780   0.64660   0.46660
O          O       0.91880   0.64660   0.46660
O          O       0.58120   0.35340   0.96660
O          O       0.77220   0.35340   0.96660
O          O       0.50450   0.50900   0.25000
O          O       0.00450   0.50900   0.25000
O          O       0.49550   0.49100   0.75000
O          O       0.99550   0.49100   0.75000
O          O       0.36470   0.53700   0.33660
O          O       0.17230   0.53700   0.33660
O          O       0.32770   0.46300   0.83660
O          O       0.13530   0.46300   0.83660
O          O       0.63530   0.46300   0.66340
O          O       0.82770   0.46300   0.66340
O          O       0.67230   0.53700   0.16340
O          O       0.86470   0.53700   0.16340
O          O       0.25350   0.50700   0.46020
O          O       0.24650   0.49300   0.96020
O          O       0.74650   0.49300   0.53980
O          O       0.75350   0.50700   0.03980
O          O       0.25430   0.50860   0.60370
O          O       0.24570   0.49140   0.10370
O          O       0.74570   0.49140   0.39630
O          O       0.75430   0.50860   0.89630
O          O       0.17630   0.35260   0.36070
O          O       0.32370   0.64740   0.86070
O          O       0.82370   0.64740   0.63930
O          O       0.67630   0.35260   0.13930
O          O       0.18160   0.36320   0.21940
O          O       0.31840   0.63680   0.71940
O          O       0.81840   0.63680   0.78060
O          O       0.68160   0.36320   0.28060
Si         Si      0.08380   0.94020   0.42560
Si         Si      0.85640   0.94020   0.42560
Si         Si      0.64360   0.05980   0.92560
Si         Si      0.41620   0.05980   0.92560
Si         Si      0.91620   0.05980   0.57440
Si         Si      0.14360   0.05980   0.57440
Si         Si      0.35640   0.94020   0.07440
Si         Si      0.58380   0.94020   0.07440
Si         Si      0.24310   0.12480   0.31580
Si         Si      0.88170   0.12480   0.31580
Si         Si      0.61830   0.87520   0.81580
Si         Si      0.25690   0.87520   0.81580
Si         Si      0.75690   0.87520   0.68420
Si         Si      0.11830   0.87520   0.68420
Si         Si      0.38170   0.12480   0.18420
Si         Si      0.74310   0.12480   0.18420
Si         Si      0.44090   0.30320   0.41190
Si         Si      0.86230   0.30320   0.41190
Si         Si      0.63770   0.69680   0.91190
Si         Si      0.05910   0.69680   0.91190
Si         Si      0.55910   0.69680   0.58810
Si         Si      0.13770   0.69680   0.58810
Si         Si      0.36230   0.30320   0.08810
Si         Si      0.94090   0.30320   0.08810
Si         Si      0.34440   0.29940   0.56360
Si         Si      0.95500   0.29940   0.56360
Si         Si      0.54500   0.70060   0.06360
Si         Si      0.15560   0.70060   0.06360
Si         Si      0.65560   0.70060   0.43640
Si         Si      0.04500   0.70060   0.43640
Si         Si      0.45500   0.29940   0.93640
Si         Si      0.84440   0.29940   0.93640
Si         Si      0.47460   0.52360   0.33260
Si         Si      0.04900   0.52360   0.33260
Si         Si      0.45100   0.47640   0.83260
Si         Si      0.02540   0.47640   0.83260
Si         Si      0.52540   0.47640   0.66740
Si         Si      0.95100   0.47640   0.66740
Si         Si      0.54900   0.52360   0.16740
Si         Si      0.97460   0.52360   0.16740
Si         Si      0.21530   0.43060   0.53240
Si         Si      0.28470   0.56940   0.03240
Si         Si      0.78470   0.56940   0.46760
Si         Si      0.71530   0.43060   0.96760
Si         Si      0.24260   0.48520   0.37350
Si         Si      0.25740   0.51480   0.87350
Si         Si      0.75740   0.51480   0.62650
Si         Si      0.74260   0.48520   0.12650
Si         Si      0.13930   0.27860   0.28740
Si         Si      0.36070   0.72140   0.78740
Si         Si      0.86070   0.72140   0.71260
Si         Si      0.63930   0.27860   0.21260
Si         Si      0.68230   0.36460   0.36840
Si         Si      0.81770   0.63540   0.86840
Si         Si      0.31770   0.63540   0.63160
Si         Si      0.18230   0.36460   0.13160
