data_crystal

_cell_length_a    14.29600
_cell_length_b    20.29000
_cell_length_c    29.27991
_cell_angle_alpha 90.00000
_cell_angle_beta  104.13021
_cell_angle_gamma 90.00000

_space_group_name_Hall 'P 1'
_space_group_name_H-M_alt 'P 1'

loop_
_symmetry_equiv_pos_as_xyz
 'x,y,z'

loop_
_atom_site_label
_atom_site_type_symbol
_atom_site_fract_x
_atom_site_fract_y
_atom_site_fract_z
O          O       0.97330   0.44440   0.13100
O          O       0.15770   0.44440   0.13100
O          O       0.84230   0.94440   0.86900
O          O       0.02670   0.94440   0.86900
O          O       0.02670   0.55560   0.86900
O          O       0.84230   0.55560   0.86900
O          O       0.15770   0.05560   0.13100
O          O       0.97330   0.05560   0.13100
O          O       0.10000   0.50160   0.20000
O          O       0.90000   0.00160   0.80000
O          O       0.90000   0.49840   0.80000
O          O       0.10000   0.99840   0.20000
O          O       0.09590   0.37230   0.19180
O          O       0.90410   0.87230   0.80820
O          O       0.90410   0.62770   0.80820
O          O       0.09590   0.12770   0.19180
O          O       0.22630   0.33990   0.26880
O          O       0.04250   0.33990   0.26880
O          O       0.95750   0.83990   0.73120
O          O       0.77370   0.83990   0.73120
O          O       0.77370   0.66010   0.73120
O          O       0.95750   0.66010   0.73120
O          O       0.04250   0.16010   0.26880
O          O       0.22630   0.16010   0.26880
O          O       0.11050   0.25000   0.22100
O          O       0.88950   0.75000   0.77900
O          O       0.21630   0.25000   0.43260
O          O       0.78370   0.75000   0.56740
O          O       0.10110   0.34130   0.38640
O          O       0.28530   0.34130   0.38640
O          O       0.71470   0.84130   0.61360
O          O       0.89890   0.84130   0.61360
O          O       0.89890   0.65870   0.61360
O          O       0.71470   0.65870   0.61360
O          O       0.28530   0.15870   0.38640
O          O       0.10110   0.15870   0.38640
O          O       0.23180   0.37170   0.46360
O          O       0.76820   0.87170   0.53640
O          O       0.76820   0.62830   0.53640
O          O       0.23180   0.12830   0.46360
O          O       0.22730   0.99930   0.45460
O          O       0.77270   0.49930   0.54540
O          O       0.77270   0.00070   0.54540
O          O       0.22730   0.50070   0.45460
O          O       0.17070   0.05490   0.52440
O          O       0.35370   0.05490   0.52440
O          O       0.64630   0.55490   0.47560
O          O       0.82930   0.55490   0.47560
O          O       0.82930   0.94510   0.47560
O          O       0.64630   0.94510   0.47560
O          O       0.35370   0.44510   0.52440
O          O       0.17070   0.44510   0.52440
O          O       0.42810   0.36830   0.85620
O          O       0.57190   0.86830   0.14380
O          O       0.57190   0.63170   0.14380
O          O       0.42810   0.13170   0.85620
O          O       0.48130   0.33640   0.77880
O          O       0.29750   0.33640   0.77880
O          O       0.70250   0.83640   0.22120
O          O       0.51870   0.83640   0.22120
O          O       0.51870   0.66360   0.22120
O          O       0.70250   0.66360   0.22120
O          O       0.29750   0.16360   0.77880
O          O       0.48130   0.16360   0.77880
O          O       0.39140   0.44760   0.78280
O          O       0.60860   0.94760   0.21720
O          O       0.60860   0.55240   0.21720
O          O       0.39140   0.05240   0.78280
O          O       0.46420   0.45000   0.92840
O          O       0.53580   0.95000   0.07160
O          O       0.53580   0.55000   0.07160
O          O       0.46420   0.05000   0.92840
O          O       0.37540   0.33810   0.93380
O          O       0.55840   0.33810   0.93380
O          O       0.44160   0.83810   0.06620
O          O       0.62460   0.83810   0.06620
O          O       0.62460   0.66190   0.06620
O          O       0.44160   0.66190   0.06620
O          O       0.55840   0.16190   0.93380
O          O       0.37540   0.16190   0.93380
O          O       0.73830   0.95170   0.93080
O          O       0.19250   0.95170   0.93080
O          O       0.80750   0.45170   0.06920
O          O       0.26170   0.45170   0.06920
O          O       0.26170   0.04830   0.06920
O          O       0.80750   0.04830   0.06920
O          O       0.19250   0.54830   0.93080
O          O       0.73830   0.54830   0.93080
O          O       0.73940   0.05060   0.87260
O          O       0.13320   0.05060   0.87260
O          O       0.86680   0.55060   0.12740
O          O       0.26060   0.55060   0.12740
O          O       0.26060   0.94940   0.12740
O          O       0.86680   0.94940   0.12740
O          O       0.13320   0.44940   0.87260
O          O       0.73940   0.44940   0.87260
O          O       0.65200   0.94030   0.84040
O          O       0.18840   0.94030   0.84040
O          O       0.81160   0.44030   0.15960
O          O       0.34800   0.44030   0.15960
O          O       0.34800   0.05970   0.15960
O          O       0.81160   0.05970   0.15960
O          O       0.18840   0.55970   0.84040
O          O       0.65200   0.55970   0.84040
O          O       0.60360   0.85200   0.67300
O          O       0.06940   0.85200   0.67300
O          O       0.93060   0.35200   0.32700
O          O       0.39640   0.35200   0.32700
O          O       0.39640   0.14800   0.32700
O          O       0.93060   0.14800   0.32700
O          O       0.06940   0.64800   0.67300
O          O       0.60360   0.64800   0.67300
O          O       0.62340   0.86800   0.76420
O          O       0.14080   0.86800   0.76420
O          O       0.85920   0.36800   0.23580
O          O       0.37660   0.36800   0.23580
O          O       0.37660   0.13200   0.23580
O          O       0.85920   0.13200   0.23580
O          O       0.14080   0.63200   0.76420
O          O       0.62340   0.63200   0.76420
O          O       0.64000   0.75000   0.73040
O          O       0.09040   0.75000   0.73040
O          O       0.90960   0.25000   0.26960
O          O       0.36000   0.25000   0.26960
O          O       0.52500   0.83890   0.58320
O          O       0.05820   0.83890   0.58320
O          O       0.94180   0.33890   0.41680
O          O       0.47500   0.33890   0.41680
O          O       0.47500   0.16110   0.41680
O          O       0.94180   0.16110   0.41680
O          O       0.05820   0.66110   0.58320
O          O       0.52500   0.66110   0.58320
O          O       0.61390   0.94910   0.61540
O          O       0.00150   0.94910   0.61540
O          O       0.99850   0.44910   0.38460
O          O       0.38610   0.44910   0.38460
O          O       0.38610   0.05090   0.38460
O          O       0.99850   0.05090   0.38460
O          O       0.00150   0.55090   0.61540
O          O       0.61390   0.55090   0.61540
O          O       0.47340   0.94120   0.41760
O          O       0.94420   0.94120   0.41760
O          O       0.05580   0.44120   0.58240
O          O       0.52660   0.44120   0.58240
O          O       0.52660   0.05880   0.58240
O          O       0.05580   0.05880   0.58240
O          O       0.94420   0.55880   0.41760
O          O       0.47340   0.55880   0.41760
O          O       0.50000   1.00000   0.50000
O          O       0.00000   0.00000   0.50000
O          O       0.00000   0.50000   0.50000
O          O       0.50000   0.50000   0.50000
O          O       0.51080   0.87090   0.49500
O          O       0.98420   0.87090   0.49500
O          O       0.01580   0.37090   0.50500
O          O       0.48920   0.37090   0.50500
O          O       0.48920   0.12910   0.50500
O          O       0.01580   0.12910   0.50500
O          O       0.98420   0.62910   0.49500
O          O       0.51080   0.62910   0.49500
O          O       0.38760   0.75000   0.22980
O          O       0.84220   0.75000   0.22980
O          O       0.15780   0.25000   0.77020
O          O       0.61240   0.25000   0.77020
O          O       0.36940   0.87420   0.25300
O          O       0.88360   0.87420   0.25300
O          O       0.11640   0.37420   0.74700
O          O       0.63060   0.37420   0.74700
O          O       0.63060   0.12580   0.74700
O          O       0.11640   0.12580   0.74700
O          O       0.88360   0.62580   0.25300
O          O       0.36940   0.62580   0.25300
O          O       0.34750   0.84050   0.16380
O          O       0.81630   0.84050   0.16380
O          O       0.18370   0.34050   0.83620
O          O       0.65250   0.34050   0.83620
O          O       0.65250   0.15950   0.83620
O          O       0.18370   0.15950   0.83620
O          O       0.81630   0.65950   0.16380
O          O       0.34750   0.65950   0.16380
O          O       0.26320   0.84650   0.07300
O          O       0.80980   0.84650   0.07300
O          O       0.19020   0.34650   0.92700
O          O       0.73680   0.34650   0.92700
O          O       0.73680   0.15350   0.92700
O          O       0.19020   0.15350   0.92700
O          O       0.80980   0.65350   0.07300
O          O       0.26320   0.65350   0.07300
O          O       0.30310   0.87140   0.99200
O          O       0.68890   0.87140   0.99200
O          O       0.31110   0.37140   0.00800
O          O       0.69690   0.37140   0.00800
O          O       0.69690   0.12860   0.00800
O          O       0.31110   0.12860   0.00800
O          O       0.68890   0.62860   0.99200
O          O       0.30310   0.62860   0.99200
O          O       0.31430   0.75000   0.02420
O          O       0.70990   0.75000   0.02420
O          O       0.29010   0.25000   0.97580
O          O       0.68570   0.25000   0.97580
O          O       0.55700   0.93660   0.93080
O          O       0.37380   0.93660   0.93080
O          O       0.62620   0.43660   0.06920
O          O       0.44300   0.43660   0.06920
O          O       0.44300   0.06340   0.06920
O          O       0.62620   0.06340   0.06920
O          O       0.37380   0.56340   0.93080
O          O       0.55700   0.56340   0.93080
O          O       0.67160   0.00000   0.00000
O          O       0.32840   1.00000   0.00000
O          O       0.67160   0.50000   0.00000
O          O       0.32840   0.50000   0.00000
O          O       0.48200   0.94050   0.77880
O          O       0.29680   0.94050   0.77880
O          O       0.70320   0.44050   0.22120
O          O       0.51800   0.44050   0.22120
O          O       0.51800   0.05950   0.22120
O          O       0.70320   0.05950   0.22120
O          O       0.29680   0.55950   0.77880
O          O       0.48200   0.55950   0.77880
O          O       0.63200   0.99720   0.75820
O          O       0.12620   0.99720   0.75820
O          O       0.87380   0.49720   0.24180
O          O       0.36800   0.49720   0.24180
O          O       0.36800   0.00280   0.24180
O          O       0.87380   0.00280   0.24180
O          O       0.12620   0.50280   0.75820
O          O       0.63200   0.50280   0.75820
O          O       0.35370   0.84380   0.52340
O          O       0.16970   0.84380   0.52340
O          O       0.83030   0.34380   0.47660
O          O       0.64630   0.34380   0.47660
O          O       0.64630   0.15620   0.47660
O          O       0.83030   0.15620   0.47660
O          O       0.16970   0.65620   0.52340
O          O       0.35370   0.65620   0.52340
O          O       0.47590   0.75000   0.51640
O          O       0.04050   0.75000   0.51640
O          O       0.95950   0.25000   0.48360
O          O       0.52410   0.25000   0.48360
O          O       0.28460   0.94330   0.38500
O          O       0.10040   0.94330   0.38500
O          O       0.89960   0.44330   0.61500
O          O       0.71540   0.44330   0.61500
O          O       0.71540   0.05670   0.61500
O          O       0.89960   0.05670   0.61500
O          O       0.10040   0.55670   0.38500
O          O       0.28460   0.55670   0.38500
O          O       0.39910   0.95310   0.32700
O          O       0.92790   0.95310   0.32700
O          O       0.07210   0.45310   0.67300
O          O       0.60090   0.45310   0.67300
O          O       0.60090   0.04690   0.67300
O          O       0.07210   0.04690   0.67300
O          O       0.92790   0.54690   0.32700
O          O       0.39910   0.54690   0.32700
O          O       0.22780   0.94580   0.27080
O          O       0.04300   0.94580   0.27080
O          O       0.95700   0.44580   0.72920
O          O       0.77220   0.44580   0.72920
O          O       0.77220   0.05420   0.72920
O          O       0.95700   0.05420   0.72920
O          O       0.04300   0.55420   0.27080
O          O       0.22780   0.55420   0.27080
O          O       0.15900   0.84340   0.13460
O          O       0.97560   0.84340   0.13460
O          O       0.02440   0.34340   0.86540
O          O       0.84100   0.34340   0.86540
O          O       0.84100   0.15660   0.86540
O          O       0.02440   0.15660   0.86540
O          O       0.97560   0.65660   0.13460
O          O       0.15900   0.65660   0.13460
O          O       0.42750   0.97140   0.85500
O          O       0.57250   0.47140   0.14500
O          O       0.57250   0.02860   0.14500
O          O       0.42750   0.52860   0.85500
O          O       0.23960   0.75000   0.47920
O          O       0.76040   0.25000   0.52080
O          O       0.22280   0.87030   0.44560
O          O       0.77720   0.37030   0.55440
O          O       0.77720   0.12970   0.55440
O          O       0.22280   0.62970   0.44560
O          O       0.10640   0.87000   0.21280
O          O       0.89360   0.37000   0.78720
O          O       0.89360   0.13000   0.78720
O          O       0.10640   0.63000   0.21280
O          O       0.08970   0.75000   0.17940
O          O       0.91030   0.25000   0.82060
Si         Si      0.74260   0.97170   0.87800
Si         Si      0.13540   0.97170   0.87800
Si         Si      0.86460   0.47170   0.12200
Si         Si      0.25740   0.47170   0.12200
Si         Si      0.25740   0.02830   0.12200
Si         Si      0.86460   0.02830   0.12200
Si         Si      0.13540   0.52830   0.87800
Si         Si      0.74260   0.52830   0.87800
Si         Si      0.61480   0.87030   0.62120
Si         Si      0.00640   0.87030   0.62120
Si         Si      0.99360   0.37030   0.37880
Si         Si      0.38520   0.37030   0.37880
Si         Si      0.38520   0.12970   0.37880
Si         Si      0.99360   0.12970   0.37880
Si         Si      0.00640   0.62970   0.62120
Si         Si      0.61480   0.62970   0.62120
Si         Si      0.53240   0.93950   0.47200
Si         Si      0.93960   0.93950   0.47200
Si         Si      0.06040   0.43950   0.52800
Si         Si      0.46760   0.43950   0.52800
Si         Si      0.46760   0.06050   0.52800
Si         Si      0.06040   0.06050   0.52800
Si         Si      0.93960   0.56050   0.47200
Si         Si      0.53240   0.56050   0.47200
Si         Si      0.66490   0.93970   0.96380
Si         Si      0.29890   0.93970   0.96380
Si         Si      0.70110   0.43970   0.03620
Si         Si      0.33510   0.43970   0.03620
Si         Si      0.33510   0.06030   0.03620
Si         Si      0.70110   0.06030   0.03620
Si         Si      0.29890   0.56030   0.96380
Si         Si      0.66490   0.56030   0.96380
Si         Si      0.38540   0.97210   0.37840
Si         Si      0.99300   0.97210   0.37840
Si         Si      0.00700   0.47210   0.62160
Si         Si      0.61460   0.47210   0.62160
Si         Si      0.61460   0.02790   0.62160
Si         Si      0.00700   0.02790   0.62160
Si         Si      0.99300   0.52790   0.37840
Si         Si      0.38540   0.52790   0.37840
Si         Si      0.34130   0.94350   0.27280
Si         Si      0.93150   0.94350   0.27280
Si         Si      0.06850   0.44350   0.72720
Si         Si      0.65870   0.44350   0.72720
Si         Si      0.65870   0.05650   0.72720
Si         Si      0.06850   0.05650   0.72720
Si         Si      0.93150   0.55650   0.27280
Si         Si      0.34130   0.55650   0.27280
Si         Si      0.25820   0.87030   0.12480
Si         Si      0.86660   0.87030   0.12480
Si         Si      0.13340   0.37030   0.87520
Si         Si      0.74180   0.37030   0.87520
Si         Si      0.74180   0.12970   0.87520
Si         Si      0.13340   0.12970   0.87520
Si         Si      0.86660   0.62970   0.12480
Si         Si      0.25820   0.62970   0.12480
Si         Si      0.40550   0.82560   0.21740
Si         Si      0.81190   0.82560   0.21740
Si         Si      0.18810   0.32560   0.78260
Si         Si      0.59450   0.32560   0.78260
Si         Si      0.59450   0.17440   0.78260
Si         Si      0.18810   0.17440   0.78260
Si         Si      0.81190   0.67440   0.21740
Si         Si      0.40550   0.67440   0.21740
Si         Si      0.33090   0.82640   0.03860
Si         Si      0.70770   0.82640   0.03860
Si         Si      0.29230   0.32640   0.96140
Si         Si      0.66910   0.32640   0.96140
Si         Si      0.66910   0.17360   0.96140
Si         Si      0.29230   0.17360   0.96140
Si         Si      0.70770   0.67360   0.03860
Si         Si      0.33090   0.67360   0.03860
Si         Si      0.59720   0.93670   0.78560
Si         Si      0.18840   0.93670   0.78560
Si         Si      0.81160   0.43670   0.21440
Si         Si      0.40280   0.43670   0.21440
Si         Si      0.40280   0.06330   0.21440
Si         Si      0.81160   0.06330   0.21440
Si         Si      0.18840   0.56330   0.78560
Si         Si      0.59720   0.56330   0.78560
Si         Si      0.46600   0.82620   0.52980
Si         Si      0.06380   0.82620   0.52980
Si         Si      0.93620   0.32620   0.47020
Si         Si      0.53400   0.32620   0.47020
Si         Si      0.53400   0.17380   0.47020
Si         Si      0.93620   0.17380   0.47020
Si         Si      0.06380   0.67380   0.52980
Si         Si      0.46600   0.67380   0.52980
Si         Si      0.66010   0.82720   0.72480
Si         Si      0.06470   0.82720   0.72480
Si         Si      0.93530   0.32720   0.27520
Si         Si      0.33990   0.32720   0.27520
Si         Si      0.33990   0.17280   0.27520
Si         Si      0.93530   0.17280   0.27520
Si         Si      0.06470   0.67280   0.72480
Si         Si      0.66010   0.67280   0.72480
Si         Si      0.08170   0.44100   0.16340
Si         Si      0.91830   0.94100   0.83660
Si         Si      0.91830   0.55900   0.83660
Si         Si      0.08170   0.05900   0.16340
Si         Si      0.24580   0.05930   0.49160
Si         Si      0.75420   0.55930   0.50840
Si         Si      0.75420   0.94070   0.50840
Si         Si      0.24580   0.44070   0.49160
Si         Si      0.20880   0.56080   0.41760
Si         Si      0.79120   0.06080   0.58240
Si         Si      0.79120   0.43920   0.58240
Si         Si      0.20880   0.93920   0.41760
Si         Si      0.11930   0.94050   0.23860
Si         Si      0.88070   0.44050   0.76140
Si         Si      0.88070   0.05950   0.76140
Si         Si      0.11930   0.55950   0.23860
Si         Si      0.08260   0.82670   0.16520
Si         Si      0.91740   0.32670   0.83480
Si         Si      0.91740   0.17330   0.83480
Si         Si      0.08260   0.67330   0.16520
Si         Si      0.20860   0.32630   0.41720
Si         Si      0.79140   0.82630   0.58280
Si         Si      0.79140   0.67370   0.58280
Si         Si      0.20860   0.17370   0.41720
Si         Si      0.11880   0.32580   0.23760
Si         Si      0.88120   0.82580   0.76240
Si         Si      0.88120   0.67420   0.76240
Si         Si      0.11880   0.17420   0.23760
Si         Si      0.39980   0.37180   0.79960
Si         Si      0.60020   0.87180   0.20040
Si         Si      0.60020   0.62820   0.20040
Si         Si      0.39980   0.12820   0.79960
Si         Si      0.45640   0.37380   0.91280
Si         Si      0.54360   0.87380   0.08720
Si         Si      0.54360   0.62620   0.08720
Si         Si      0.45640   0.12620   0.91280
Si         Si      0.45580   0.97420   0.91160
Si         Si      0.54420   0.47420   0.08840
Si         Si      0.54420   0.02580   0.08840
Si         Si      0.45580   0.52580   0.91160
Si         Si      0.39930   0.97620   0.79860
Si         Si      0.60070   0.47620   0.20140
Si         Si      0.60070   0.02380   0.20140
Si         Si      0.39930   0.52380   0.79860
Si         Si      0.24650   0.82690   0.49300
Si         Si      0.75350   0.32690   0.50700
Si         Si      0.75350   0.17310   0.50700
Si         Si      0.24650   0.67310   0.49300
