data_crystal

_cell_length_a    15.81820
_cell_length_b    15.81820
_cell_length_c    15.81820
_cell_angle_alpha 103.24571
_cell_angle_beta  108.61661
_cell_angle_gamma 116.84885

_space_group_name_Hall 'P 1'
_space_group_name_H-M_alt 'P 1'

loop_
_symmetry_equiv_pos_as_xyz
 'x,y,z'

loop_
_atom_site_label
_atom_site_type_symbol
_atom_site_fract_x
_atom_site_fract_y
_atom_site_fract_z
O          O       0.60846   0.03927   0.14233
O          O       0.39154   0.53387   0.43081
O          O       0.10306   0.96073   0.56919
O          O       0.89694   0.46613   0.85767
O          O       0.39154   0.96073   0.85767
O          O       0.60846   0.46613   0.56919
O          O       0.89694   0.03927   0.43081
O          O       0.10306   0.53387   0.14233
O          O       0.71154   0.95731   0.10275
O          O       0.28846   0.39121   0.24577
O          O       0.14544   0.04269   0.75423
O          O       0.85456   0.60879   0.89725
O          O       0.28846   0.04269   0.89725
O          O       0.71154   0.60879   0.75423
O          O       0.85456   0.95731   0.24577
O          O       0.14544   0.39121   0.10275
O          O       0.67478   0.06474   0.01104
O          O       0.32522   0.33626   0.38996
O          O       0.94630   0.93526   0.61004
O          O       0.05370   0.66374   0.98896
O          O       0.32522   0.93526   0.98896
O          O       0.67478   0.66374   0.61004
O          O       0.05370   0.06474   0.38996
O          O       0.94630   0.33626   0.01104
O          O       0.81770   0.16192   0.20110
O          O       0.18230   0.38340   0.34422
O          O       0.03918   0.83808   0.65578
O          O       0.96082   0.61660   0.79890
O          O       0.18230   0.83808   0.79890
O          O       0.81770   0.61660   0.65578
O          O       0.96082   0.16192   0.34422
O          O       0.03918   0.38340   0.20110
O          O       0.35790   0.89034   0.67486
O          O       0.64210   0.31696   0.53244
O          O       0.78452   0.10966   0.46756
O          O       0.21548   0.68304   0.32514
O          O       0.64210   0.10966   0.32514
O          O       0.35790   0.68304   0.46756
O          O       0.21548   0.89034   0.53244
O          O       0.78452   0.31696   0.67486
O          O       0.45542   0.09331   0.78059
O          O       0.54458   0.32517   0.63789
O          O       0.68728   0.90669   0.36211
O          O       0.31272   0.67483   0.21941
O          O       0.54458   0.90669   0.21941
O          O       0.45542   0.67483   0.36211
O          O       0.31272   0.09331   0.63789
O          O       0.68728   0.32517   0.78059
O          O       0.55456   0.99975   0.82221
O          O       0.44544   0.26765   0.44519
O          O       0.82246   0.00025   0.55481
O          O       0.17754   0.73235   0.17779
O          O       0.44544   0.00025   0.17779
O          O       0.55456   0.73235   0.55481
O          O       0.17754   0.99975   0.44519
O          O       0.82246   0.26765   0.82221
O          O       0.88291   1.00000   0.88291
O          O       0.11709   1.00000   0.11709
O          O       0.69925   0.95528   0.87803
O          O       0.30075   0.17878   0.25603
O          O       0.92275   0.04472   0.74397
O          O       0.07725   0.82122   0.12197
O          O       0.30075   0.04472   0.12197
O          O       0.69925   0.82122   0.74397
O          O       0.07725   0.95528   0.25603
O          O       0.92275   0.17878   0.87803
O          O       0.77833   0.84948   0.92885
O          O       0.22167   0.15052   0.07115
O          O       0.07937   0.15052   0.92885
O          O       0.92063   0.84948   0.07115
O          O       0.76153   0.15050   0.91203
O          O       0.23847   0.15050   0.38897
O          O       0.76153   0.84950   0.61103
O          O       0.23847   0.84950   0.08797
O          O       0.14997   0.76670   0.61673
O          O       0.85003   0.46676   0.61673
O          O       0.85003   0.23330   0.38327
O          O       0.14997   0.53324   0.38327
O          O       0.22509   0.72509   0.50000
O          O       0.77491   0.27491   0.50000
O          O       0.64601   0.82368   0.17767
O          O       0.35399   0.53166   0.17767
O          O       0.35399   0.17632   0.82233
O          O       0.64601   0.46834   0.82233
O          O       0.50000   0.72833   0.22833
O          O       0.50000   0.27167   0.77167
O          O       0.73649   0.80301   0.06652
O          O       0.26351   0.33003   0.06652
O          O       0.26351   0.19699   0.93348
O          O       0.73649   0.66997   0.93348
O          O       0.00000   0.65906   0.65906
O          O       0.00000   0.34094   0.34094
Si         Si      0.70263   0.05632   0.11465
Si         Si      0.29737   0.41202   0.35369
Si         Si      0.05833   0.94368   0.64631
Si         Si      0.94167   0.58798   0.88535
Si         Si      0.29737   0.94368   0.88535
Si         Si      0.70263   0.58798   0.64631
Si         Si      0.94167   0.05632   0.35369
Si         Si      0.05833   0.41202   0.11465
Si         Si      0.44025   0.98691   0.78478
Si         Si      0.55975   0.34453   0.54666
Si         Si      0.79787   0.01309   0.45334
Si         Si      0.20213   0.65547   0.21522
Si         Si      0.55975   0.01309   0.21522
Si         Si      0.44025   0.65547   0.45334
Si         Si      0.20213   0.98691   0.54666
Si         Si      0.79787   0.34453   0.78478
Si         Si      0.67305   0.04176   0.90575
Si         Si      0.32695   0.23270   0.36871
Si         Si      0.86399   0.95824   0.63129
Si         Si      0.13601   0.76730   0.09425
Si         Si      0.32695   0.95824   0.09425
Si         Si      0.67305   0.76730   0.63129
Si         Si      0.13601   0.04176   0.36871
Si         Si      0.86399   0.23270   0.90575
Si         Si      0.59450   0.84172   0.24722
Si         Si      0.40550   0.65272   0.24722
Si         Si      0.40550   0.15828   0.75278
Si         Si      0.59450   0.34728   0.75278
Si         Si      0.73679   0.88525   0.14846
Si         Si      0.26321   0.41167   0.14846
Si         Si      0.26321   0.11475   0.85154
Si         Si      0.73679   0.58833   0.85154
Si         Si      0.23747   0.81861   0.58114
Si         Si      0.76253   0.34367   0.58114
Si         Si      0.76253   0.18139   0.41886
Si         Si      0.23747   0.65633   0.41886
Si         Si      0.09292   0.77595   0.68303
Si         Si      0.90708   0.59011   0.68303
Si         Si      0.90708   0.22405   0.31697
Si         Si      0.09292   0.40989   0.31697
Si         Si      0.76514   0.90672   0.85842
Si         Si      0.23486   0.09328   0.14158
Si         Si      0.95170   0.09328   0.85842
Si         Si      0.04830   0.90672   0.14158
Si         Si      0.79338   0.79338   0.00000
Si         Si      0.20662   0.20662   0.00000
