data_crystal

_cell_length_a    14.10100
_cell_length_b    19.03100
_cell_length_c    19.03100
_cell_angle_alpha 120.00000
_cell_angle_beta  90.00000
_cell_angle_gamma 90.00000

_space_group_name_Hall 'P 1'
_space_group_name_H-M_alt 'P 1'

loop_
_symmetry_equiv_pos_as_xyz
 'x,y,z'

loop_
_atom_site_label
_atom_site_type_symbol
_atom_site_fract_x
_atom_site_fract_y
_atom_site_fract_z
Si         Si      0.61170   0.53380   0.62600
Si         Si      0.61170   0.09220   0.46620
Si         Si      0.61170   0.37400   0.90780
Si         Si      0.61170   0.46620   0.37400
Si         Si      0.61170   0.90780   0.53380
Si         Si      0.61170   0.62600   0.09220
Si         Si      0.61170   0.90780   0.37400
Si         Si      0.61170   0.62600   0.53380
Si         Si      0.61170   0.46620   0.09220
Si         Si      0.61170   0.09220   0.62600
Si         Si      0.61170   0.37400   0.46620
Si         Si      0.61170   0.53380   0.90780
Si         Si      0.38830   0.46620   0.37400
Si         Si      0.38830   0.90780   0.53380
Si         Si      0.38830   0.62600   0.09220
Si         Si      0.38830   0.53380   0.62600
Si         Si      0.38830   0.09220   0.46620
Si         Si      0.38830   0.37400   0.90780
Si         Si      0.38830   0.09220   0.62600
Si         Si      0.38830   0.37400   0.46620
Si         Si      0.38830   0.53380   0.90780
Si         Si      0.38830   0.90780   0.37400
Si         Si      0.38830   0.62600   0.53380
Si         Si      0.38830   0.46620   0.09220
Si         Si      0.70110   0.51350   0.75680
Si         Si      0.70110   0.24330   0.48650
Si         Si      0.70110   0.24320   0.75670
Si         Si      0.70110   0.48650   0.24320
Si         Si      0.70110   0.75670   0.51350
Si         Si      0.70110   0.75680   0.24330
Si         Si      0.29890   0.48650   0.24320
Si         Si      0.29890   0.75670   0.51350
Si         Si      0.29890   0.75680   0.24330
Si         Si      0.29890   0.51350   0.75680
Si         Si      0.29890   0.24330   0.48650
Si         Si      0.29890   0.24320   0.75670
Si         Si      0.89440   0.43590   0.71790
Si         Si      0.89440   0.28200   0.56410
Si         Si      0.89440   0.28210   0.71800
Si         Si      0.89440   0.56410   0.28210
Si         Si      0.89440   0.71800   0.43590
Si         Si      0.89440   0.71790   0.28200
Si         Si      0.10560   0.56410   0.28210
Si         Si      0.10560   0.71800   0.43590
Si         Si      0.10560   0.71790   0.28200
Si         Si      0.10560   0.43590   0.71790
Si         Si      0.10560   0.28200   0.56410
Si         Si      0.10560   0.28210   0.71800
Si         Si      0.61390   0.33333   0.66667
Si         Si      0.61390   0.66667   0.33333
Si         Si      0.38610   0.66667   0.33333
Si         Si      0.38610   0.33333   0.66667
O          O       0.66640   0.55970   0.70990
O          O       0.66640   0.15020   0.44030
O          O       0.66640   0.29010   0.84980
O          O       0.66640   0.44030   0.29010
O          O       0.66640   0.84980   0.55970
O          O       0.66640   0.70990   0.15020
O          O       0.66640   0.84980   0.29010
O          O       0.66640   0.70990   0.55970
O          O       0.66640   0.44030   0.15020
O          O       0.66640   0.15020   0.70990
O          O       0.66640   0.29010   0.44030
O          O       0.66640   0.55970   0.84980
O          O       0.33360   0.44030   0.29010
O          O       0.33360   0.84980   0.55970
O          O       0.33360   0.70990   0.15020
O          O       0.33360   0.55970   0.70990
O          O       0.33360   0.15020   0.44030
O          O       0.33360   0.29010   0.84980
O          O       0.33360   0.15020   0.70990
O          O       0.33360   0.29010   0.44030
O          O       0.33360   0.55970   0.84980
O          O       0.33360   0.84980   0.29010
O          O       0.33360   0.70990   0.55970
O          O       0.33360   0.44030   0.15020
O          O       0.63050   0.44000   0.56000
O          O       0.63050   0.12000   0.56000
O          O       0.63050   0.44000   0.88000
O          O       0.63050   0.56000   0.44000
O          O       0.63050   0.88000   0.44000
O          O       0.63050   0.56000   0.12000
O          O       0.36950   0.56000   0.44000
O          O       0.36950   0.88000   0.44000
O          O       0.36950   0.56000   0.12000
O          O       0.36950   0.44000   0.56000
O          O       0.36950   0.12000   0.56000
O          O       0.36950   0.44000   0.88000
O          O       0.64700   0.58990   0.58990
O          O       0.64700   1.00000   0.41010
O          O       0.64700   0.41010   1.00000
O          O       0.64700   0.41010   0.41010
O          O       0.64700   1.00000   0.58990
O          O       0.64700   0.58990   0.00000
O          O       0.35300   0.41010   0.41010
O          O       0.35300   1.00000   0.58990
O          O       0.35300   0.58990   0.00000
O          O       0.35300   0.58990   0.58990
O          O       0.35300   1.00000   0.41010
O          O       0.35300   0.41010   1.00000
O          O       0.50000   0.54830   0.64520
O          O       0.50000   0.09690   0.45170
O          O       0.50000   0.35480   0.90310
O          O       0.50000   0.45170   0.35480
O          O       0.50000   0.90310   0.54830
O          O       0.50000   0.64520   0.09690
O          O       0.50000   0.90310   0.35480
O          O       0.50000   0.64520   0.54830
O          O       0.50000   0.45170   0.09690
O          O       0.50000   0.09690   0.64520
O          O       0.50000   0.35480   0.45170
O          O       0.50000   0.54830   0.90310
O          O       0.81500   0.50600   0.75300
O          O       0.81500   0.24700   0.49400
O          O       0.81500   0.24700   0.75300
O          O       0.81500   0.49400   0.24700
O          O       0.81500   0.75300   0.50600
O          O       0.81500   0.75300   0.24700
O          O       0.18500   0.49400   0.24700
O          O       0.18500   0.75300   0.50600
O          O       0.18500   0.75300   0.24700
O          O       0.18500   0.50600   0.75300
O          O       0.18500   0.24700   0.49400
O          O       0.18500   0.24700   0.75300
O          O       0.65320   0.42490   0.71240
O          O       0.65320   0.28750   0.57510
O          O       0.65320   0.28760   0.71250
O          O       0.65320   0.57510   0.28760
O          O       0.65320   0.71250   0.42490
O          O       0.65320   0.71240   0.28750
O          O       0.34680   0.57510   0.28760
O          O       0.34680   0.71250   0.42490
O          O       0.34680   0.71240   0.28750
O          O       0.34680   0.42490   0.71240
O          O       0.34680   0.28750   0.57510
O          O       0.34680   0.28760   0.71250
O          O       0.00000   0.47330   0.73670
O          O       0.00000   0.26340   0.52670
O          O       0.00000   0.26330   0.73660
O          O       0.00000   0.52670   0.26330
O          O       0.00000   0.73660   0.47330
O          O       0.00000   0.73670   0.26340
O          O       0.88240   0.37900   0.62110
O          O       0.88240   0.24210   0.62100
O          O       0.88240   0.37890   0.75790
O          O       0.88240   0.62100   0.37890
O          O       0.88240   0.75790   0.37900
O          O       0.88240   0.62110   0.24210
O          O       0.11760   0.62100   0.37890
O          O       0.11760   0.75790   0.37900
O          O       0.11760   0.62110   0.24210
O          O       0.11760   0.37900   0.62110
O          O       0.11760   0.24210   0.62100
O          O       0.11760   0.37890   0.75790
O          O       0.50000   0.33333   0.66667
O          O       0.50000   0.66667   0.33333
