data_crystal

_cell_length_a    12.87400
_cell_length_b    12.87400
_cell_length_c    25.67400
_cell_angle_alpha 90.00000
_cell_angle_beta  90.00000
_cell_angle_gamma 90.00000

_space_group_name_Hall 'P 1'
_space_group_name_H-M_alt 'P 1'

loop_
_symmetry_equiv_pos_as_xyz
 'x,y,z'

loop_
_atom_site_label
_atom_site_type_symbol
_atom_site_fract_x
_atom_site_fract_y
_atom_site_fract_z
Si         Si      0.30790   0.24940   0.90400
Si         Si      0.75060   0.30790   0.40400
Si         Si      0.69210   0.75060   0.90400
Si         Si      0.24940   0.69210   0.40400
Si         Si      0.69210   0.24940   0.90400
Si         Si      0.24940   0.30790   0.40400
Si         Si      0.30790   0.75060   0.90400
Si         Si      0.75060   0.69210   0.40400
Si         Si      0.69210   0.75060   0.09600
Si         Si      0.24940   0.69210   0.59600
Si         Si      0.30790   0.24940   0.09600
Si         Si      0.75060   0.30790   0.59600
Si         Si      0.30790   0.75060   0.09600
Si         Si      0.75060   0.69210   0.59600
Si         Si      0.69210   0.24940   0.09600
Si         Si      0.24940   0.30790   0.59600
Si         Si      0.11850   0.11680   0.06120
Si         Si      0.88320   0.11850   0.56120
Si         Si      0.88150   0.88320   0.06120
Si         Si      0.11680   0.88150   0.56120
Si         Si      0.88150   0.11680   0.06120
Si         Si      0.11680   0.11850   0.56120
Si         Si      0.11850   0.88320   0.06120
Si         Si      0.88320   0.88150   0.56120
Si         Si      0.88150   0.88320   0.93880
Si         Si      0.11680   0.88150   0.43880
Si         Si      0.11850   0.11680   0.93880
Si         Si      0.88320   0.11850   0.43880
Si         Si      0.11850   0.88320   0.93880
Si         Si      0.88320   0.88150   0.43880
Si         Si      0.88150   0.11680   0.93880
Si         Si      0.11680   0.11850   0.43880
Si         Si      0.37740   0.38240   0.19030
Si         Si      0.61760   0.37740   0.69030
Si         Si      0.62260   0.61760   0.19030
Si         Si      0.38240   0.62260   0.69030
Si         Si      0.62260   0.38240   0.19030
Si         Si      0.38240   0.37740   0.69030
Si         Si      0.37740   0.61760   0.19030
Si         Si      0.61760   0.62260   0.69030
Si         Si      0.62260   0.61760   0.80970
Si         Si      0.38240   0.62260   0.30970
Si         Si      0.37740   0.38240   0.80970
Si         Si      0.61760   0.37740   0.30970
Si         Si      0.37740   0.61760   0.80970
Si         Si      0.61760   0.62260   0.30970
Si         Si      0.62260   0.38240   0.80970
Si         Si      0.38240   0.37740   0.30970
Si         Si      0.50000   0.12480   0.05880
Si         Si      0.87520   0.50000   0.55880
Si         Si      0.50000   0.87520   0.05880
Si         Si      0.12480   0.50000   0.55880
Si         Si      0.50000   0.87520   0.94120
Si         Si      0.12480   0.50000   0.44120
Si         Si      0.50000   0.12480   0.94120
Si         Si      0.87520   0.50000   0.44120
Si         Si      0.38230   0.37520   0.00000
Si         Si      0.62480   0.38230   0.50000
Si         Si      0.61770   0.62480   0.00000
Si         Si      0.37520   0.61770   0.50000
Si         Si      0.61770   0.37520   0.00000
Si         Si      0.37520   0.38230   0.50000
Si         Si      0.38230   0.62480   0.00000
Si         Si      0.62480   0.61770   0.50000
O          O       0.14510   0.11950   0.00000
O          O       0.88050   0.14510   0.50000
O          O       0.85490   0.88050   0.00000
O          O       0.11950   0.85490   0.50000
O          O       0.85490   0.11950   0.00000
O          O       0.11950   0.14510   0.50000
O          O       0.14510   0.88050   0.00000
O          O       0.88050   0.85490   0.50000
O          O       0.13370   0.00000   0.08250
O          O       0.00000   0.13370   0.58250
O          O       0.86630   0.00000   0.08250
O          O       0.00000   0.86630   0.58250
O          O       0.86630   0.00000   0.91750
O          O       0.00000   0.86630   0.41750
O          O       0.13370   0.00000   0.91750
O          O       0.00000   0.13370   0.41750
O          O       0.00000   0.15240   0.07020
O          O       0.84760   0.00000   0.57020
O          O       0.00000   0.84760   0.07020
O          O       0.15240   0.00000   0.57020
O          O       0.00000   0.84760   0.92980
O          O       0.15240   0.00000   0.42980
O          O       0.00000   0.15240   0.92980
O          O       0.84760   0.00000   0.42980
O          O       0.19590   0.19450   0.09130
O          O       0.80550   0.19590   0.59130
O          O       0.80410   0.80550   0.09130
O          O       0.19450   0.80410   0.59130
O          O       0.80410   0.19450   0.09130
O          O       0.19450   0.19590   0.59130
O          O       0.19590   0.80550   0.09130
O          O       0.80550   0.80410   0.59130
O          O       0.80410   0.80550   0.90870
O          O       0.19450   0.80410   0.40870
O          O       0.19590   0.19450   0.90870
O          O       0.80550   0.19590   0.40870
O          O       0.19590   0.80550   0.90870
O          O       0.80550   0.80410   0.40870
O          O       0.80410   0.19450   0.90870
O          O       0.19450   0.19590   0.40870
O          O       0.39800   0.16370   0.91060
O          O       0.83630   0.39800   0.41060
O          O       0.60200   0.83630   0.91060
O          O       0.16370   0.60200   0.41060
O          O       0.60200   0.16370   0.91060
O          O       0.16370   0.39800   0.41060
O          O       0.39800   0.83630   0.91060
O          O       0.83630   0.60200   0.41060
O          O       0.60200   0.83630   0.08940
O          O       0.16370   0.60200   0.58940
O          O       0.39800   0.16370   0.08940
O          O       0.83630   0.39800   0.58940
O          O       0.39800   0.83630   0.08940
O          O       0.83630   0.60200   0.58940
O          O       0.60200   0.16370   0.08940
O          O       0.16370   0.39800   0.58940
O          O       0.32160   0.33550   0.94890
O          O       0.66450   0.32160   0.44890
O          O       0.67840   0.66450   0.94890
O          O       0.33550   0.67840   0.44890
O          O       0.67840   0.33550   0.94890
O          O       0.33550   0.32160   0.44890
O          O       0.32160   0.66450   0.94890
O          O       0.66450   0.67840   0.44890
O          O       0.67840   0.66450   0.05110
O          O       0.33550   0.67840   0.55110
O          O       0.32160   0.33550   0.05110
O          O       0.66450   0.32160   0.55110
O          O       0.32160   0.66450   0.05110
O          O       0.66450   0.67840   0.55110
O          O       0.67840   0.33550   0.05110
O          O       0.33550   0.32160   0.55110
O          O       0.31640   0.30400   0.84780
O          O       0.69600   0.31640   0.34780
O          O       0.68360   0.69600   0.84780
O          O       0.30400   0.68360   0.34780
O          O       0.68360   0.30400   0.84780
O          O       0.30400   0.31640   0.34780
O          O       0.31640   0.69600   0.84780
O          O       0.69600   0.68360   0.34780
O          O       0.68360   0.69600   0.15220
O          O       0.30400   0.68360   0.65220
O          O       0.31640   0.30400   0.15220
O          O       0.69600   0.31640   0.65220
O          O       0.31640   0.69600   0.15220
O          O       0.69600   0.68360   0.65220
O          O       0.68360   0.30400   0.15220
O          O       0.30400   0.31640   0.65220
O          O       0.50000   0.00000   0.05730
O          O       0.00000   0.50000   0.55730
O          O       0.50000   0.00000   0.94270
O          O       0.00000   0.50000   0.44270
O          O       0.50000   0.16850   0.00000
O          O       0.83150   0.50000   0.50000
O          O       0.50000   0.83150   0.00000
O          O       0.16850   0.50000   0.50000
O          O       0.50000   0.33260   0.00000
O          O       0.66740   0.50000   0.50000
O          O       0.50000   0.66740   0.00000
O          O       0.33260   0.50000   0.50000
O          O       0.38410   0.50000   0.00000
O          O       0.50000   0.38410   0.50000
O          O       0.61590   0.50000   0.00000
O          O       0.50000   0.61590   0.50000
O          O       0.35300   0.35300   0.25000
O          O       0.64700   0.35300   0.75000
O          O       0.64700   0.64700   0.25000
O          O       0.35300   0.64700   0.75000
O          O       0.64700   0.35300   0.25000
O          O       0.35300   0.35300   0.75000
O          O       0.35300   0.64700   0.25000
O          O       0.64700   0.64700   0.75000
O          O       0.50000   0.37260   0.17950
O          O       0.62740   0.50000   0.67950
O          O       0.50000   0.62740   0.17950
O          O       0.37260   0.50000   0.67950
O          O       0.50000   0.62740   0.82050
O          O       0.37260   0.50000   0.32050
O          O       0.50000   0.37260   0.82050
O          O       0.62740   0.50000   0.32050
O          O       0.34070   0.50000   0.17920
O          O       0.50000   0.34070   0.67920
O          O       0.65930   0.50000   0.17920
O          O       0.50000   0.65930   0.67920
O          O       0.65930   0.50000   0.82080
O          O       0.50000   0.65930   0.32080
O          O       0.34070   0.50000   0.82080
O          O       0.50000   0.34070   0.32080
