data_crystal

_cell_length_a    9.80400
_cell_length_b    11.47612
_cell_length_c    20.00900
_cell_angle_alpha 90.00000
_cell_angle_beta  90.00000
_cell_angle_gamma 115.28669

_space_group_name_Hall 'P 1'
_space_group_name_H-M_alt 'P 1'

loop_
_symmetry_equiv_pos_as_xyz
 'x,y,z'

loop_
_atom_site_label
_atom_site_type_symbol
_atom_site_fract_x
_atom_site_fract_y
_atom_site_fract_z
O          O       0.87130   0.47720   0.85620
O          O       0.39410   0.52280   0.85620
O          O       0.60590   0.47720   0.35620
O          O       0.12870   0.52280   0.35620
O          O       0.12870   0.52280   0.14380
O          O       0.60590   0.47720   0.14380
O          O       0.39410   0.52280   0.64380
O          O       0.87130   0.47720   0.64380
O          O       0.73360   0.33720   0.75000
O          O       0.39640   0.66280   0.75000
O          O       0.60360   0.33720   0.25000
O          O       0.26640   0.66280   0.25000
O          O       0.57970   0.41180   0.83600
O          O       0.16790   0.58820   0.83600
O          O       0.83210   0.41180   0.33600
O          O       0.42030   0.58820   0.33600
O          O       0.42030   0.58820   0.16400
O          O       0.83210   0.41180   0.16400
O          O       0.16790   0.58820   0.66400
O          O       0.57970   0.41180   0.66400
O          O       0.67100   0.23340   0.87120
O          O       0.43760   0.76660   0.87120
O          O       0.56240   0.23340   0.37120
O          O       0.32900   0.76660   0.37120
O          O       0.32900   0.76660   0.12880
O          O       0.56240   0.23340   0.12880
O          O       0.43760   0.76660   0.62880
O          O       0.67100   0.23340   0.62880
O          O       0.40130   0.80260   0.00000
O          O       0.59870   0.19740   1.00000
O          O       0.40130   0.80260   0.50000
O          O       0.59870   0.19740   0.50000
O          O       0.57780   0.00000   0.92420
O          O       0.42220   0.00000   0.42420
O          O       0.42220   0.00000   0.07580
O          O       0.57780   0.00000   0.57580
O          O       0.66330   0.81600   0.95640
O          O       0.84730   0.18400   0.95640
O          O       0.15270   0.81600   0.45640
O          O       0.33670   0.18400   0.45640
O          O       0.33670   0.18400   0.04360
O          O       0.15270   0.81600   0.04360
O          O       0.84730   0.18400   0.54360
O          O       0.66330   0.81600   0.54360
O          O       0.39670   0.34600   0.94120
O          O       0.05070   0.65400   0.94120
O          O       0.94930   0.34600   0.44120
O          O       0.60330   0.65400   0.44120
O          O       0.60330   0.65400   0.05880
O          O       0.94930   0.34600   0.05880
O          O       0.05070   0.65400   0.55880
O          O       0.39670   0.34600   0.55880
O          O       0.63010   0.57640   0.93630
O          O       0.05370   0.42360   0.93630
O          O       0.94630   0.57640   0.43630
O          O       0.36990   0.42360   0.43630
O          O       0.36990   0.42360   0.06370
O          O       0.94630   0.57640   0.06370
O          O       0.05370   0.42360   0.56370
O          O       0.63010   0.57640   0.56370
O          O       0.87220   0.74440   0.00000
O          O       0.12780   0.25560   0.00000
O          O       0.87220   0.74440   0.50000
O          O       0.12780   0.25560   0.50000
Si         Si      0.71400   0.36500   0.82830
Si         Si      0.34900   0.63500   0.82830
Si         Si      0.65100   0.36500   0.32830
Si         Si      0.28600   0.63500   0.32830
Si         Si      0.28600   0.63500   0.17170
Si         Si      0.65100   0.36500   0.17170
Si         Si      0.34900   0.63500   0.67170
Si         Si      0.71400   0.36500   0.67170
Si         Si      0.52010   0.84660   0.93800
Si         Si      0.67350   0.15340   0.93800
Si         Si      0.32650   0.84660   0.43800
Si         Si      0.47990   0.15340   0.43800
Si         Si      0.47990   0.15340   0.06200
Si         Si      0.32650   0.84660   0.06200
Si         Si      0.67350   0.15340   0.56200
Si         Si      0.52010   0.84660   0.56200
Si         Si      0.50010   0.46460   0.89240
Si         Si      0.03550   0.53540   0.89240
Si         Si      0.96450   0.46460   0.39240
Si         Si      0.49990   0.53540   0.39240
Si         Si      0.49990   0.53540   0.10760
Si         Si      0.96450   0.46460   0.10760
Si         Si      0.03550   0.53540   0.60760
Si         Si      0.50010   0.46460   0.60760
Si         Si      0.69230   0.69760   0.98790
Si         Si      0.99470   0.30240   0.98790
Si         Si      0.00530   0.69760   0.48790
Si         Si      0.30770   0.30240   0.48790
Si         Si      0.30770   0.30240   0.01210
Si         Si      0.00530   0.69760   0.01210
Si         Si      0.99470   0.30240   0.51210
Si         Si      0.69230   0.69760   0.51210
