data_crystal

_cell_length_a    12.69890
_cell_length_b    12.74110
_cell_length_c    20.99910
_cell_angle_alpha 96.29000
_cell_angle_beta  90.00000
_cell_angle_gamma 90.00000

_space_group_name_Hall 'P 1'
_space_group_name_H-M_alt 'P 1'

loop_
_symmetry_equiv_pos_as_xyz
 'x,y,z'

loop_
_atom_site_label
_atom_site_type_symbol
_atom_site_fract_x
_atom_site_fract_y
_atom_site_fract_z
Si         Si      0.87930   0.35330   0.76290
Si         Si      0.87930   0.64670   0.23710
Si         Si      0.12070   0.64670   0.23710
Si         Si      0.12070   0.35330   0.76290
Si         Si      0.87930   0.20450   0.63490
Si         Si      0.87930   0.79550   0.36510
Si         Si      0.12070   0.79550   0.36510
Si         Si      0.12070   0.20450   0.63490
Si         Si      0.87880   0.01340   0.70970
Si         Si      0.87880   0.98660   0.29030
Si         Si      0.12120   0.98660   0.29030
Si         Si      0.12120   0.01340   0.70970
Si         Si      0.87890   0.16130   0.83770
Si         Si      0.87890   0.83870   0.16230
Si         Si      0.12110   0.83870   0.16230
Si         Si      0.12110   0.16130   0.83770
Si         Si      0.62120   0.88170   0.93790
Si         Si      0.62120   0.11830   0.06210
Si         Si      0.37880   0.11830   0.06210
Si         Si      0.37880   0.88170   0.93790
Si         Si      0.62110   0.73030   0.81280
Si         Si      0.62110   0.26970   0.18720
Si         Si      0.37890   0.26970   0.18720
Si         Si      0.37890   0.73030   0.81280
Si         Si      0.69410   0.85410   0.70240
Si         Si      0.69410   0.14590   0.29760
Si         Si      0.30590   0.14590   0.29760
Si         Si      0.30590   0.85410   0.70240
Si         Si      0.61990   0.71340   0.58210
Si         Si      0.61990   0.28660   0.41790
Si         Si      0.38010   0.28660   0.41790
Si         Si      0.38010   0.71340   0.58210
Si         Si      0.62010   0.48820   0.61880
Si         Si      0.62010   0.51180   0.38120
Si         Si      0.37990   0.51180   0.38120
Si         Si      0.37990   0.48820   0.61880
Si         Si      0.69210   0.26680   0.55610
Si         Si      0.69210   0.73320   0.44390
Si         Si      0.30790   0.73320   0.44390
Si         Si      0.30790   0.26680   0.55610
Si         Si      0.69180   0.50470   0.76020
Si         Si      0.69180   0.49530   0.23980
Si         Si      0.30820   0.49530   0.23980
Si         Si      0.30820   0.50470   0.76020
Si         Si      0.69290   0.10440   0.92160
Si         Si      0.69290   0.89560   0.07840
Si         Si      0.30710   0.89560   0.07840
Si         Si      0.30710   0.10440   0.92160
Si         Si      0.50000   0.21000   0.63540
Si         Si      0.50000   0.79000   0.36460
Si         Si      0.50000   0.00860   0.71510
Si         Si      0.50000   0.99140   0.28490
Si         Si      0.50000   0.15260   0.83800
Si         Si      0.50000   0.84740   0.16200
Si         Si      0.50000   0.35410   0.75840
Si         Si      0.50000   0.64590   0.24160
O          O       0.68000   0.97810   0.90920
O          O       0.68000   0.02190   0.09080
O          O       0.32000   0.02190   0.09080
O          O       0.32000   0.97810   0.90920
O          O       0.50000   0.91250   0.95270
O          O       0.50000   0.08750   0.04730
O          O       0.62620   0.77750   0.88710
O          O       0.62620   0.22250   0.11290
O          O       0.37380   0.22250   0.11290
O          O       0.37380   0.77750   0.88710
O          O       0.50000   0.71990   0.79030
O          O       0.50000   0.28010   0.20970
O          O       0.67630   0.61590   0.80360
O          O       0.67630   0.38410   0.19640
O          O       0.32370   0.38410   0.19640
O          O       0.32370   0.61590   0.80360
O          O       0.68250   0.80890   0.77070
O          O       0.68250   0.19110   0.22930
O          O       0.31750   0.19110   0.22930
O          O       0.31750   0.80890   0.77070
O          O       0.80790   0.90840   0.69750
O          O       0.80790   0.09160   0.30250
O          O       0.19210   0.09160   0.30250
O          O       0.19210   0.90840   0.69750
O          O       0.60360   0.94020   0.69490
O          O       0.60360   0.05980   0.30510
O          O       0.39640   0.05980   0.30510
O          O       0.39640   0.94020   0.69490
O          O       0.68270   0.75870   0.64590
O          O       0.68270   0.24130   0.35410
O          O       0.31730   0.24130   0.35410
O          O       0.31730   0.75870   0.64590
O          O       0.67640   0.75260   0.52030
O          O       0.67640   0.24740   0.47970
O          O       0.32360   0.24740   0.47970
O          O       0.32360   0.75260   0.52030
O          O       0.50000   0.75470   0.58630
O          O       0.50000   0.24530   0.41370
O          O       0.62060   0.58630   0.57650
O          O       0.62060   0.41370   0.42350
O          O       0.37940   0.41370   0.42350
O          O       0.37940   0.58630   0.57650
O          O       0.67970   0.52140   0.68560
O          O       0.67970   0.47860   0.31440
O          O       0.32030   0.47860   0.31440
O          O       0.32030   0.52140   0.68560
O          O       0.50000   0.45580   0.63180
O          O       0.50000   0.54420   0.36820
O          O       0.68130   0.39080   0.57990
O          O       0.68130   0.60920   0.42010
O          O       0.31870   0.60920   0.42010
O          O       0.31870   0.39080   0.57990
O          O       0.80670   0.22570   0.57470
O          O       0.80670   0.77430   0.42530
O          O       0.19330   0.77430   0.42530
O          O       0.19330   0.22570   0.57470
O          O       0.60340   0.20290   0.59080
O          O       0.60340   0.79710   0.40920
O          O       0.39660   0.79710   0.40920
O          O       0.39660   0.20290   0.59080
O          O       0.50000   0.31890   0.68230
O          O       0.50000   0.68110   0.31770
O          O       0.50000   0.11270   0.67810
O          O       0.50000   0.88730   0.32190
O          O       0.50000   0.04360   0.79110
O          O       0.50000   0.95640   0.20890
O          O       0.60350   0.15980   0.88240
O          O       0.60350   0.84020   0.11760
O          O       0.39650   0.84020   0.11760
O          O       0.39650   0.15980   0.88240
O          O       0.50000   0.24990   0.79530
O          O       0.50000   0.75010   0.20470
O          O       0.60340   0.42280   0.77870
O          O       0.60340   0.57720   0.22130
O          O       0.39660   0.57720   0.22130
O          O       0.39660   0.42280   0.77870
O          O       0.80620   0.45710   0.77340
O          O       0.80620   0.54290   0.22660
O          O       0.19380   0.54290   0.22660
O          O       0.19380   0.45710   0.77340
O          O       0.00000   0.38550   0.77830
O          O       0.00000   0.61450   0.22170
O          O       0.84210   0.26790   0.80950
O          O       0.84210   0.73210   0.19050
O          O       0.15790   0.73210   0.19050
O          O       0.15790   0.26790   0.80950
O          O       0.86980   0.30310   0.68940
O          O       0.86980   0.69690   0.31060
O          O       0.13020   0.69690   0.31060
O          O       0.13020   0.30310   0.68940
O          O       0.00000   0.19080   0.61210
O          O       0.00000   0.80920   0.38790
O          O       0.84060   0.09860   0.66330
O          O       0.84060   0.90140   0.33670
O          O       0.15940   0.90140   0.33670
O          O       0.15940   0.09860   0.66330
O          O       0.86760   0.06270   0.78320
O          O       0.86760   0.93730   0.21680
O          O       0.13240   0.93730   0.21680
O          O       0.13240   0.06270   0.78320
O          O       0.00000   0.17280   0.86010
O          O       0.00000   0.82720   0.13990
O          O       0.80690   0.13990   0.89810
O          O       0.80690   0.86010   0.10190
O          O       0.19310   0.86010   0.10190
O          O       0.19310   0.13990   0.89810
O          O       0.67910   0.14170   0.99690
O          O       0.67910   0.85830   0.00310
O          O       0.32090   0.85830   0.00310
O          O       0.32090   0.14170   0.99690
O          O       0.00000   0.98320   0.69450
O          O       0.00000   0.01680   0.30550
