data_crystal

_cell_length_a    11.66200
_cell_length_b    12.41901
_cell_length_c    12.56600
_cell_angle_alpha 90.00000
_cell_angle_beta  90.00000
_cell_angle_gamma 118.00328

_space_group_name_Hall 'P 1'
_space_group_name_H-M_alt 'P 1'

loop_
_symmetry_equiv_pos_as_xyz
 'x,y,z'

loop_
_atom_site_label
_atom_site_type_symbol
_atom_site_fract_x
_atom_site_fract_y
_atom_site_fract_z
O          O       0.72950   0.68460   0.68210
O          O       0.72950   0.68460   0.31790
O          O       0.95510   0.68460   0.68210
O          O       0.95510   0.68460   0.31790
O          O       0.03490   0.06980   0.64020
O          O       0.03490   0.06980   0.35980
O          O       0.79730   0.91720   0.70050
O          O       0.79730   0.91720   0.29950
O          O       0.11990   0.91720   0.70050
O          O       0.11990   0.91720   0.29950
O          O       0.99310   0.37600   0.60490
O          O       0.99310   0.37600   0.39510
O          O       0.38290   0.37600   0.60490
O          O       0.38290   0.37600   0.39510
O          O       0.35580   0.71160   0.85310
O          O       0.35580   0.71160   0.14690
O          O       0.18320   0.68340   0.00000
O          O       0.50020   0.68340   0.00000
O          O       0.85580   0.14160   0.64750
O          O       0.85580   0.14160   0.35250
O          O       0.28580   0.14160   0.64750
O          O       0.28580   0.14160   0.35250
O          O       0.94460   0.30220   0.80380
O          O       0.94460   0.30220   0.19620
O          O       0.35760   0.30220   0.80380
O          O       0.35760   0.30220   0.19620
O          O       0.75720   0.28980   0.68140
O          O       0.75720   0.28980   0.31860
O          O       0.53260   0.28980   0.68140
O          O       0.53260   0.28980   0.31860
O          O       0.11860   0.53080   0.83940
O          O       0.11860   0.53080   0.16060
O          O       0.41220   0.53080   0.83940
O          O       0.41220   0.53080   0.16060
O          O       0.84560   0.98740   0.50000
O          O       0.14180   0.98740   0.50000
O          O       0.59670   0.75520   0.80980
O          O       0.59670   0.75520   0.19020
O          O       0.15850   0.75520   0.80980
O          O       0.15850   0.75520   0.19020
O          O       0.38170   0.76340   0.50000
O          O       0.01380   0.38040   0.00000
O          O       0.36660   0.38040   0.00000
O          O       0.19190   0.77240   0.39560
O          O       0.19190   0.77240   0.60440
O          O       0.58050   0.77240   0.39560
O          O       0.58050   0.77240   0.60440
O          O       0.74410   0.48820   0.62690
O          O       0.74410   0.48820   0.37310
O          O       0.19130   0.38260   0.50000
O          O       0.14920   0.57300   0.50000
O          O       0.42380   0.57300   0.50000
O          O       0.17620   0.35240   0.87260
O          O       0.17620   0.35240   0.12740
O          O       0.64870   0.29740   0.50000
O          O       0.83940   0.67880   0.50000
Si         Si      0.22810   0.71960   0.50000
Si         Si      0.49150   0.71960   0.50000
Si         Si      0.06310   0.39180   0.87880
Si         Si      0.06310   0.39180   0.12120
Si         Si      0.32870   0.39180   0.87880
Si         Si      0.32870   0.39180   0.12120
Si         Si      0.88820   0.27700   0.68430
Si         Si      0.88820   0.27700   0.31570
Si         Si      0.38880   0.27700   0.68430
Si         Si      0.38880   0.27700   0.31570
Si         Si      0.08160   0.42660   0.50000
Si         Si      0.34500   0.42660   0.50000
Si         Si      0.20480   0.67080   0.87510
Si         Si      0.20480   0.67080   0.12490
Si         Si      0.46600   0.67080   0.87510
Si         Si      0.46600   0.67080   0.12490
Si         Si      0.67650   0.78180   0.70000
Si         Si      0.67650   0.78180   0.30000
Si         Si      0.10530   0.78180   0.70000
Si         Si      0.10530   0.78180   0.30000
Si         Si      0.88320   0.02880   0.62190
Si         Si      0.88320   0.02880   0.37810
Si         Si      0.14560   0.02880   0.62190
Si         Si      0.14560   0.02880   0.37810
Si         Si      0.67080   0.34160   0.62220
Si         Si      0.67080   0.34160   0.37780
Si         Si      0.81740   0.63480   0.62230
Si         Si      0.81740   0.63480   0.37770
