data_crystal

_cell_length_a    11.67300
_cell_length_b    12.43881
_cell_length_c    25.17000
_cell_angle_alpha 90.00000
_cell_angle_beta  90.00000
_cell_angle_gamma 117.98348

_space_group_name_Hall 'P 1'
_space_group_name_H-M_alt 'P 1'

loop_
_symmetry_equiv_pos_as_xyz
 'x,y,z'

loop_
_atom_site_label
_atom_site_type_symbol
_atom_site_fract_x
_atom_site_fract_y
_atom_site_fract_z
O          O       0.42590   0.24020   0.19800
O          O       0.57410   0.75980   0.69800
O          O       0.81430   0.24020   0.30200
O          O       0.18570   0.75980   0.80200
O          O       0.57410   0.75980   0.80200
O          O       0.42590   0.24020   0.30200
O          O       0.18570   0.75980   0.69800
O          O       0.81430   0.24020   0.19800
O          O       0.18960   0.15380   0.15900
O          O       0.81040   0.84620   0.65900
O          O       0.96420   0.15380   0.34100
O          O       0.03580   0.84620   0.84100
O          O       0.81040   0.84620   0.84100
O          O       0.18960   0.15380   0.34100
O          O       0.03580   0.84620   0.65900
O          O       0.96420   0.15380   0.15900
O          O       0.39460   0.22500   0.09560
O          O       0.60540   0.77500   0.59560
O          O       0.83040   0.22500   0.40440
O          O       0.16960   0.77500   0.90440
O          O       0.60540   0.77500   0.90440
O          O       0.39460   0.22500   0.40440
O          O       0.16960   0.77500   0.59560
O          O       0.83040   0.22500   0.09560
O          O       0.35460   0.38580   0.15030
O          O       0.64540   0.61420   0.65030
O          O       0.03120   0.38580   0.34970
O          O       0.96880   0.61420   0.84970
O          O       0.64540   0.61420   0.84970
O          O       0.35460   0.38580   0.34970
O          O       0.96880   0.61420   0.65030
O          O       0.03120   0.38580   0.15030
O          O       0.40280   0.22600   0.59770
O          O       0.59720   0.77400   0.09770
O          O       0.82320   0.22600   0.90230
O          O       0.17680   0.77400   0.40230
O          O       0.59720   0.77400   0.40230
O          O       0.40280   0.22600   0.90230
O          O       0.17680   0.77400   0.09770
O          O       0.82320   0.22600   0.59770
O          O       0.38340   0.15600   0.69760
O          O       0.61660   0.84400   0.19760
O          O       0.77260   0.15600   0.80240
O          O       0.22740   0.84400   0.30240
O          O       0.61660   0.84400   0.30240
O          O       0.38340   0.15600   0.80240
O          O       0.22740   0.84400   0.19760
O          O       0.77260   0.15600   0.69760
O          O       0.23290   0.24160   0.65980
O          O       0.76710   0.75840   0.15980
O          O       0.00870   0.24160   0.84020
O          O       0.99130   0.75840   0.34020
O          O       0.76710   0.75840   0.34020
O          O       0.23290   0.24160   0.84020
O          O       0.99130   0.75840   0.15980
O          O       0.00870   0.24160   0.65980
O          O       0.48040   0.38900   0.67480
O          O       0.51960   0.61100   0.17480
O          O       0.90860   0.38900   0.82520
O          O       0.09140   0.61100   0.32520
O          O       0.51960   0.61100   0.32520
O          O       0.48040   0.38900   0.82520
O          O       0.09140   0.61100   0.17480
O          O       0.90860   0.38900   0.67480
O          O       0.37980   0.45900   0.25000
O          O       0.62020   0.54100   0.75000
O          O       0.07920   0.45900   0.25000
O          O       0.92080   0.54100   0.75000
O          O       0.26880   0.53760   0.18020
O          O       0.73120   0.46240   0.68020
O          O       0.26880   0.53760   0.31980
O          O       0.73120   0.46240   0.81980
O          O       0.40960   0.81920   0.57060
O          O       0.59040   0.18080   0.07060
O          O       0.40960   0.81920   0.92940
O          O       0.59040   0.18080   0.42940
O          O       0.64700   0.99880   0.57990
O          O       0.35300   0.00120   0.07990
O          O       0.35180   0.99880   0.92010
O          O       0.64820   0.00120   0.42010
O          O       0.35300   0.00120   0.42010
O          O       0.64700   0.99880   0.92010
O          O       0.64820   0.00120   0.07990
O          O       0.35180   0.99880   0.57990
O          O       0.58830   0.84700   0.50000
O          O       0.41170   0.15300   1.00000
O          O       0.25870   0.84700   1.00000
O          O       0.74130   0.15300   0.50000
O          O       0.41170   0.15300   0.50000
O          O       0.58830   0.84700   0.00000
O          O       0.74130   0.15300   0.00000
O          O       0.25870   0.84700   0.50000
O          O       0.41100   0.82200   0.06990
O          O       0.58900   0.17800   0.56990
O          O       0.41100   0.82200   0.43010
O          O       0.58900   0.17800   0.93010
O          O       0.38470   0.76940   0.75000
O          O       0.61530   0.23060   0.25000
O          O       0.61730   0.95900   0.75000
O          O       0.38270   0.04100   0.25000
O          O       0.34170   0.95900   0.75000
O          O       0.65830   0.04100   0.25000
O          O       0.42570   0.85140   0.25000
O          O       0.57430   0.14860   0.75000
O          O       0.97890   0.95780   0.18610
O          O       0.02110   0.04220   0.68610
O          O       0.97890   0.95780   0.31390
O          O       0.02110   0.04220   0.81390
O          O       0.07350   0.14700   0.25000
O          O       0.92650   0.85300   0.75000
O          O       0.11590   0.23180   0.75000
O          O       0.88410   0.76820   0.25000
Si         Si      0.33990   0.25060   0.15020
Si         Si      0.66010   0.74940   0.65020
Si         Si      0.91070   0.25060   0.34980
Si         Si      0.08930   0.74940   0.84980
Si         Si      0.66010   0.74940   0.84980
Si         Si      0.33990   0.25060   0.34980
Si         Si      0.08930   0.74940   0.65020
Si         Si      0.91070   0.25060   0.15020
Si         Si      0.37610   0.25340   0.65760
Si         Si      0.62390   0.74660   0.15760
Si         Si      0.87730   0.25340   0.84240
Si         Si      0.12270   0.74660   0.34240
Si         Si      0.62390   0.74660   0.34240
Si         Si      0.37610   0.25340   0.84240
Si         Si      0.12270   0.74660   0.15760
Si         Si      0.87730   0.25340   0.65760
Si         Si      0.38060   0.49820   0.18900
Si         Si      0.61940   0.50180   0.68900
Si         Si      0.11760   0.49820   0.31100
Si         Si      0.88240   0.50180   0.81100
Si         Si      0.61940   0.50180   0.81100
Si         Si      0.38060   0.49820   0.31100
Si         Si      0.88240   0.50180   0.68900
Si         Si      0.11760   0.49820   0.18900
Si         Si      0.56090   0.85900   0.56180
Si         Si      0.43910   0.14100   0.06180
Si         Si      0.29810   0.85900   0.93820
Si         Si      0.70190   0.14100   0.43820
Si         Si      0.43910   0.14100   0.43820
Si         Si      0.56090   0.85900   0.93820
Si         Si      0.70190   0.14100   0.06180
Si         Si      0.29810   0.85900   0.56180
Si         Si      0.56240   0.86180   0.06170
Si         Si      0.43760   0.13820   0.56170
Si         Si      0.29940   0.86180   0.43830
Si         Si      0.70060   0.13820   0.93830
Si         Si      0.43760   0.13820   0.93830
Si         Si      0.56240   0.86180   0.43830
Si         Si      0.70060   0.13820   0.56170
Si         Si      0.29940   0.86180   0.06170
Si         Si      0.53810   0.81280   0.75000
Si         Si      0.46190   0.18720   0.25000
Si         Si      0.27470   0.81280   0.75000
Si         Si      0.72530   0.18720   0.25000
Si         Si      0.57910   0.89480   0.25000
Si         Si      0.42090   0.10520   0.75000
Si         Si      0.31570   0.89480   0.25000
Si         Si      0.68430   0.10520   0.75000
Si         Si      0.05210   0.10420   0.18880
Si         Si      0.94790   0.89580   0.68880
Si         Si      0.05210   0.10420   0.31120
Si         Si      0.94790   0.89580   0.81120
Si         Si      0.09420   0.18840   0.68890
Si         Si      0.90580   0.81160   0.18890
Si         Si      0.09420   0.18840   0.81110
Si         Si      0.90580   0.81160   0.31110
