data_crystal

_cell_length_a    11.63328
_cell_length_b    18.86773
_cell_length_c    18.86773
_cell_angle_alpha 120.00000
_cell_angle_beta  90.00000
_cell_angle_gamma 90.00000

_space_group_name_Hall 'P 1'
_space_group_name_H-M_alt 'P 1'

loop_
_symmetry_equiv_pos_as_xyz
 'x,y,z'

loop_
_atom_site_label
_atom_site_type_symbol
_atom_site_fract_x
_atom_site_fract_y
_atom_site_fract_z
Si         Si      0.63387   0.62887   0.09499
Si         Si      0.63387   0.46612   0.37113
Si         Si      0.63387   0.90501   0.53388
Si         Si      0.63387   0.53388   0.90501
Si         Si      0.63387   0.37113   0.46612
Si         Si      0.63387   0.09499   0.62887
Si         Si      0.63387   0.37113   0.90501
Si         Si      0.63387   0.53388   0.62887
Si         Si      0.63387   0.09499   0.46612
Si         Si      0.63387   0.46612   0.09499
Si         Si      0.63387   0.62887   0.53388
Si         Si      0.63387   0.90501   0.37113
Si         Si      0.36613   0.37113   0.90501
Si         Si      0.36613   0.53388   0.62887
Si         Si      0.36613   0.09499   0.46612
Si         Si      0.36613   0.46612   0.09499
Si         Si      0.36613   0.62887   0.53388
Si         Si      0.36613   0.90501   0.37113
Si         Si      0.36613   0.62887   0.09499
Si         Si      0.36613   0.46612   0.37113
Si         Si      0.36613   0.90501   0.53388
Si         Si      0.36613   0.53388   0.90501
Si         Si      0.36613   0.37113   0.46612
Si         Si      0.36613   0.09499   0.62887
Si         Si      0.75128   0.75599   0.24401
Si         Si      0.75128   0.48802   0.24401
Si         Si      0.75128   0.75599   0.51198
Si         Si      0.75128   0.51198   0.75599
Si         Si      0.75128   0.24401   0.48802
Si         Si      0.75128   0.24401   0.75599
Si         Si      0.24872   0.24401   0.75599
Si         Si      0.24872   0.51198   0.75599
Si         Si      0.24872   0.24401   0.48802
Si         Si      0.24872   0.48802   0.24401
Si         Si      0.24872   0.75599   0.51198
Si         Si      0.24872   0.75599   0.24401
Si         Si      0.00000   0.71892   0.43784
Si         Si      0.00000   0.71892   0.28108
Si         Si      0.00000   0.56216   0.28108
Si         Si      0.00000   0.28108   0.56216
Si         Si      0.00000   0.28108   0.71892
Si         Si      0.00000   0.43784   0.71892
Si         Si      0.63803   0.66667   0.33333
Si         Si      0.63803   0.33333   0.66667
Si         Si      0.36197   0.33333   0.66667
Si         Si      0.36197   0.66667   0.33333
O          O       0.71087   0.70918   0.14978
O          O       0.71087   0.44060   0.29082
O          O       0.71087   0.85022   0.55940
O          O       0.71087   0.55940   0.85022
O          O       0.71087   0.29082   0.44060
O          O       0.71087   0.14978   0.70918
O          O       0.71087   0.29082   0.85022
O          O       0.71087   0.55940   0.70918
O          O       0.71087   0.14978   0.44060
O          O       0.71087   0.44060   0.14978
O          O       0.71087   0.70918   0.55940
O          O       0.71087   0.85022   0.29082
O          O       0.28913   0.29082   0.85022
O          O       0.28913   0.55940   0.70918
O          O       0.28913   0.14978   0.44060
O          O       0.28913   0.44060   0.14978
O          O       0.28913   0.70918   0.55940
O          O       0.28913   0.85022   0.29082
O          O       0.28913   0.70918   0.14978
O          O       0.28913   0.44060   0.29082
O          O       0.28913   0.85022   0.55940
O          O       0.28913   0.55940   0.85022
O          O       0.28913   0.29082   0.44060
O          O       0.28913   0.14978   0.70918
O          O       0.50000   0.65349   0.11061
O          O       0.50000   0.45712   0.34651
O          O       0.50000   0.88939   0.54288
O          O       0.50000   0.54288   0.88939
O          O       0.50000   0.34651   0.45712
O          O       0.50000   0.11061   0.65349
O          O       0.50000   0.34651   0.88939
O          O       0.50000   0.54288   0.65349
O          O       0.50000   0.11061   0.45712
O          O       0.50000   0.45712   0.11061
O          O       0.50000   0.65349   0.54288
O          O       0.50000   0.88939   0.34651
O          O       0.66401   0.59422   0.00000
O          O       0.66401   0.40578   0.40578
O          O       0.66401   1.00000   0.59422
O          O       0.66401   0.40578   0.00000
O          O       0.66401   0.59422   0.59422
O          O       0.66401   1.00000   0.40578
O          O       0.33599   0.40578   0.00000
O          O       0.33599   0.59422   0.59422
O          O       0.33599   1.00000   0.40578
O          O       0.33599   0.59422   0.00000
O          O       0.33599   0.40578   0.40578
O          O       0.33599   1.00000   0.59422
O          O       0.66005   0.55917   0.11834
O          O       0.66005   0.55917   0.44083
O          O       0.66005   0.88166   0.44083
O          O       0.66005   0.44083   0.88166
O          O       0.66005   0.44083   0.55917
O          O       0.66005   0.11834   0.55917
O          O       0.33995   0.44083   0.88166
O          O       0.33995   0.44083   0.55917
O          O       0.33995   0.11834   0.55917
O          O       0.33995   0.55917   0.11834
O          O       0.33995   0.55917   0.44083
O          O       0.33995   0.88166   0.44083
O          O       0.68385   0.71304   0.28696
O          O       0.68385   0.57392   0.28696
O          O       0.68385   0.71304   0.42608
O          O       0.68385   0.42608   0.71304
O          O       0.68385   0.28696   0.57392
O          O       0.68385   0.28696   0.71304
O          O       0.31615   0.28696   0.71304
O          O       0.31615   0.42608   0.71304
O          O       0.31615   0.28696   0.57392
O          O       0.31615   0.57392   0.28696
O          O       0.31615   0.71304   0.42608
O          O       0.31615   0.71304   0.28696
O          O       0.50000   0.66667   0.33333
O          O       0.50000   0.33333   0.66667
O          O       0.00000   0.62070   0.37930
O          O       0.00000   0.75860   0.37930
O          O       1.00000   0.62070   0.24140
O          O       1.00000   0.24140   0.62070
O          O       1.00000   0.37930   0.75860
O          O       0.00000   0.37930   0.62070
O          O       0.88750   0.74760   0.49520
O          O       0.88750   0.74760   0.25240
O          O       0.88750   0.50480   0.25240
O          O       0.88750   0.25240   0.50480
O          O       0.88750   0.25240   0.74760
O          O       0.88750   0.49520   0.74760
O          O       0.11250   0.25240   0.50480
O          O       0.11250   0.25240   0.74760
O          O       0.11250   0.49520   0.74760
O          O       0.11250   0.74760   0.49520
O          O       0.11250   0.74760   0.25240
O          O       0.11250   0.50480   0.25240
