data_crystal

_cell_length_a    8.95400
_cell_length_b    9.15209
_cell_length_c    9.15209
_cell_angle_alpha 110.37292
_cell_angle_beta  98.85371
_cell_angle_gamma 98.85371

_space_group_name_Hall 'P 1'
_space_group_name_H-M_alt 'P 1'

loop_
_symmetry_equiv_pos_as_xyz
 'x,y,z'

loop_
_atom_site_label
_atom_site_type_symbol
_atom_site_fract_x
_atom_site_fract_y
_atom_site_fract_z
O          O       0.00000   0.27340   0.72660
O          O       0.00000   0.72660   0.27340
O          O       0.22850   0.52650   0.85470
O          O       0.77150   0.14530   0.47350
O          O       0.77150   0.47350   0.14530
O          O       0.22850   0.85470   0.52650
O          O       0.19890   0.31660   0.99000
O          O       0.80110   0.01000   0.68340
O          O       0.80110   0.68340   0.01000
O          O       0.19890   0.99000   0.31660
O          O       0.00000   0.50000   0.00000
O          O       1.00000   0.00000   0.50000
O          O       0.73140   0.17380   0.95280
O          O       0.26860   0.04720   0.82620
O          O       0.26860   0.82620   0.04720
O          O       0.73140   0.95280   0.17380
O          O       0.49020   0.29160   0.02380
O          O       0.50980   0.97620   0.70840
O          O       0.50980   0.70840   0.97620
O          O       0.49020   0.02380   0.29160
O          O       0.68040   0.24190   0.24190
O          O       0.31960   0.75810   0.75810
O          O       0.29650   0.13680   0.13680
O          O       0.70350   0.86320   0.86320
Si         Si      0.10610   0.40390   0.89290
Si         Si      0.89390   0.10710   0.59610
Si         Si      0.89390   0.59610   0.10710
Si         Si      0.10610   0.89290   0.40390
Si         Si      0.66830   0.29540   0.09120
Si         Si      0.33170   0.90880   0.70460
Si         Si      0.33170   0.70460   0.90880
Si         Si      0.66830   0.09120   0.29540
Si         Si      0.31370   0.19820   0.99400
Si         Si      0.68630   0.00600   0.80180
Si         Si      0.68630   0.80180   0.00600
Si         Si      0.31370   0.99400   0.19820
