data_crystal

_cell_length_a    12.52780
_cell_length_b    12.52780
_cell_length_c    12.67600
_cell_angle_alpha 90.00000
_cell_angle_beta  90.00000
_cell_angle_gamma 115.86755

_space_group_name_Hall 'P 1'
_space_group_name_H-M_alt 'P 1'

loop_
_symmetry_equiv_pos_as_xyz
 'x,y,z'

loop_
_atom_site_label
_atom_site_type_symbol
_atom_site_fract_x
_atom_site_fract_y
_atom_site_fract_z
O          O       0.27130   0.07330   0.10370
O          O       0.07330   0.27130   0.10370
O          O       0.92670   0.72870   0.10370
O          O       0.72870   0.92670   0.10370
O          O       0.72870   0.92670   0.89630
O          O       0.92670   0.72870   0.89630
O          O       0.07330   0.27130   0.89630
O          O       0.27130   0.07330   0.89630
O          O       0.11000   0.11000   0.00000
O          O       0.89000   0.89000   0.00000
O          O       0.10220   0.89780   0.00000
O          O       0.89780   0.10220   0.00000
O          O       0.21810   0.03550   0.50000
O          O       0.03550   0.21810   0.50000
O          O       0.96450   0.78190   0.50000
O          O       0.78190   0.96450   0.50000
O          O       0.07950   0.92050   0.34230
O          O       0.92050   0.07950   0.34230
O          O       0.92050   0.07950   0.65770
O          O       0.07950   0.92050   0.65770
O          O       0.30280   0.06660   0.30750
O          O       0.06660   0.30280   0.30750
O          O       0.93340   0.69720   0.30750
O          O       0.69720   0.93340   0.30750
O          O       0.69720   0.93340   0.69250
O          O       0.93340   0.69720   0.69250
O          O       0.06660   0.30280   0.69250
O          O       0.30280   0.06660   0.69250
O          O       0.15030   0.15030   0.36180
O          O       0.84970   0.84970   0.36180
O          O       0.84970   0.84970   0.63820
O          O       0.15030   0.15030   0.63820
O          O       0.33630   0.91630   0.18120
O          O       0.91630   0.33630   0.18120
O          O       0.08370   0.66370   0.18120
O          O       0.66370   0.08370   0.18120
O          O       0.66370   0.08370   0.81880
O          O       0.08370   0.66370   0.81880
O          O       0.91630   0.33630   0.81880
O          O       0.33630   0.91630   0.81880
O          O       0.48650   0.14210   0.17880
O          O       0.14210   0.48650   0.17880
O          O       0.85790   0.51350   0.17880
O          O       0.51350   0.85790   0.17880
O          O       0.51350   0.85790   0.82120
O          O       0.85790   0.51350   0.82120
O          O       0.14210   0.48650   0.82120
O          O       0.48650   0.14210   0.82120
O          O       0.29940   0.70060   0.12620
O          O       0.70060   0.29940   0.12620
O          O       0.70060   0.29940   0.87380
O          O       0.29940   0.70060   0.87380
O          O       0.41800   0.88020   0.00000
O          O       0.88020   0.41800   0.00000
O          O       0.11980   0.58200   0.00000
O          O       0.58200   0.11980   0.00000
Si         Si      0.18760   0.04360   0.37770
Si         Si      0.04360   0.18760   0.37770
Si         Si      0.95640   0.81240   0.37770
Si         Si      0.81240   0.95640   0.37770
Si         Si      0.81240   0.95640   0.62230
Si         Si      0.95640   0.81240   0.62230
Si         Si      0.04360   0.18760   0.62230
Si         Si      0.18760   0.04360   0.62230
Si         Si      0.34940   0.04940   0.19330
Si         Si      0.04940   0.34940   0.19330
Si         Si      0.95060   0.65060   0.19330
Si         Si      0.65060   0.95060   0.19330
Si         Si      0.65060   0.95060   0.80670
Si         Si      0.95060   0.65060   0.80670
Si         Si      0.04940   0.34940   0.80670
Si         Si      0.34940   0.04940   0.80670
Si         Si      0.39180   0.83880   0.12130
Si         Si      0.83880   0.39180   0.12130
Si         Si      0.16120   0.60820   0.12130
Si         Si      0.60820   0.16120   0.12130
Si         Si      0.60820   0.16120   0.87870
Si         Si      0.16120   0.60820   0.87870
Si         Si      0.83880   0.39180   0.87870
Si         Si      0.39180   0.83880   0.87870
Si         Si      0.18910   0.03790   0.00000
Si         Si      0.03790   0.18910   0.00000
Si         Si      0.96210   0.81090   0.00000
Si         Si      0.81090   0.96210   0.00000
