data_crystal

_cell_length_a    12.90800
_cell_length_b    19.94506
_cell_length_c    19.94506
_cell_angle_alpha 83.98956
_cell_angle_beta  71.11990
_cell_angle_gamma 71.11990

_space_group_name_Hall 'P 1'
_space_group_name_H-M_alt 'P 1'

loop_
_symmetry_equiv_pos_as_xyz
 'x,y,z'

loop_
_atom_site_label
_atom_site_type_symbol
_atom_site_fract_x
_atom_site_fract_y
_atom_site_fract_z
O          O       0.07890   0.59770   0.24450
O          O       0.92110   0.40230   0.75550
O          O       0.67660   0.24450   0.40230
O          O       0.32340   0.75550   0.59770
O          O       0.92110   0.75550   0.40230
O          O       0.07890   0.24450   0.59770
O          O       0.32340   0.59770   0.75550
O          O       0.67660   0.40230   0.24450
O          O       0.88140   0.66590   0.33410
O          O       0.88140   0.33410   0.66590
O          O       0.54730   0.33410   0.33410
O          O       0.21550   0.66590   0.66590
O          O       0.11860   0.66590   0.33410
O          O       0.11860   0.33410   0.66590
O          O       0.45270   0.66590   0.66590
O          O       0.78450   0.33410   0.33410
O          O       0.90990   0.67650   0.19710
O          O       0.78350   0.32350   0.80290
O          O       0.58640   0.19710   0.32350
O          O       0.10700   0.80290   0.67650
O          O       0.09010   0.80290   0.32350
O          O       0.21650   0.19710   0.67650
O          O       0.41360   0.67650   0.80290
O          O       0.89300   0.32350   0.19710
O          O       0.09010   0.32350   0.80290
O          O       0.21650   0.67650   0.19710
O          O       0.41360   0.80290   0.67650
O          O       0.89300   0.19710   0.32350
O          O       0.90990   0.19710   0.67650
O          O       0.78350   0.80290   0.32350
O          O       0.58640   0.32350   0.19710
O          O       0.10700   0.67650   0.80290
O          O       0.89440   0.55780   0.26500
O          O       0.71720   0.44220   0.73500
O          O       0.45220   0.26500   0.44220
O          O       0.15940   0.73500   0.55780
O          O       0.10560   0.73500   0.44220
O          O       0.28280   0.26500   0.55780
O          O       0.54780   0.55780   0.73500
O          O       0.84060   0.44220   0.26500
O          O       0.10560   0.44220   0.73500
O          O       0.28280   0.55780   0.26500
O          O       0.54780   0.73500   0.55780
O          O       0.84060   0.26500   0.44220
O          O       0.89440   0.26500   0.55780
O          O       0.71720   0.73500   0.44220
O          O       0.45220   0.44220   0.26500
O          O       0.15940   0.55780   0.73500
O          O       0.91630   0.73120   0.07140
O          O       0.71890   0.26880   0.92860
O          O       0.64750   0.07140   0.26880
O          O       0.98770   0.92860   0.73120
O          O       0.08370   0.92860   0.26880
O          O       0.28110   0.07140   0.73120
O          O       0.35250   0.73120   0.92860
O          O       0.01230   0.26880   0.07140
O          O       0.08370   0.26880   0.92860
O          O       0.28110   0.73120   0.07140
O          O       0.35250   0.92860   0.73120
O          O       0.01230   0.07140   0.26880
O          O       0.91630   0.07140   0.73120
O          O       0.71890   0.92860   0.26880
O          O       0.64750   0.26880   0.07140
O          O       0.98770   0.73120   0.92860
O          O       0.06540   0.73880   0.13040
O          O       0.93460   0.26120   0.86960
O          O       0.80420   0.13040   0.26120
O          O       0.19580   0.86960   0.73880
O          O       0.93460   0.86960   0.26120
O          O       0.06540   0.13040   0.73880
O          O       0.19580   0.73880   0.86960
O          O       0.80420   0.26120   0.13040
O          O       0.84990   0.81480   0.18520
O          O       0.84990   0.18520   0.81480
O          O       0.66470   0.18520   0.18520
O          O       0.03510   0.81480   0.81480
O          O       0.15010   0.81480   0.18520
O          O       0.15010   0.18520   0.81480
O          O       0.33530   0.81480   0.81480
O          O       0.96490   0.18520   0.18520
O          O       0.57040   0.85920   0.00000
O          O       0.42960   0.14080   1.00000
O          O       0.42960   0.00000   0.14080
O          O       0.57040   0.00000   0.85920
O          O       0.64290   0.93030   0.06970
O          O       0.64290   0.06970   0.93030
O          O       0.57320   0.06970   0.06970
O          O       0.71260   0.93030   0.93030
O          O       0.35710   0.93030   0.06970
O          O       0.35710   0.06970   0.93030
O          O       0.42680   0.93030   0.93030
O          O       0.28740   0.06970   0.06970
O          O       0.78560   0.81540   0.00000
O          O       0.60100   0.18460   1.00000
O          O       0.60100   0.00000   0.18460
O          O       0.78560   0.00000   0.81540
O          O       0.21440   0.00000   0.18460
O          O       0.39900   0.00000   0.81540
O          O       0.39900   0.81540   0.00000
O          O       0.21440   0.18460   1.00000
O          O       0.98000   0.83400   0.00000
O          O       0.81400   0.16600   0.00000
O          O       0.81400   0.00000   0.16600
O          O       0.98000   0.00000   0.83400
O          O       0.02000   0.00000   0.16600
O          O       0.18600   0.00000   0.83400
O          O       0.18600   0.83400   0.00000
O          O       0.02000   0.16600   0.00000
O          O       0.92180   0.46270   0.36450
O          O       0.74900   0.53730   0.63550
O          O       0.38450   0.36450   0.53730
O          O       0.28630   0.63550   0.46270
O          O       0.07820   0.63550   0.53730
O          O       0.25100   0.36450   0.46270
O          O       0.61550   0.46270   0.63550
O          O       0.71370   0.53730   0.36450
O          O       0.07820   0.53730   0.63550
O          O       0.25100   0.46270   0.36450
O          O       0.61550   0.63550   0.46270
O          O       0.71370   0.36450   0.53730
O          O       0.92180   0.36450   0.46270
O          O       0.74900   0.63550   0.53730
O          O       0.38450   0.53730   0.36450
O          O       0.28630   0.46270   0.63550
O          O       0.00000   0.93000   0.07000
O          O       0.00000   0.07000   0.93000
O          O       0.93000   0.07000   0.07000
O          O       0.07000   0.93000   0.93000
O          O       0.66460   0.50000   0.50000
O          O       0.16460   0.50000   0.50000
O          O       0.33540   0.50000   0.50000
O          O       0.83540   0.50000   0.50000
O          O       0.50000   0.55760   0.44240
O          O       0.50000   0.44240   0.55760
O          O       0.05760   0.44240   0.44240
O          O       0.94240   0.55760   0.55760
Si         Si      0.94150   0.62430   0.25970
Si         Si      0.82550   0.37570   0.74030
Si         Si      0.56580   0.25970   0.37570
Si         Si      0.20120   0.74030   0.62430
Si         Si      0.05850   0.74030   0.37570
Si         Si      0.17450   0.25970   0.62430
Si         Si      0.43420   0.62430   0.74030
Si         Si      0.79880   0.37570   0.25970
Si         Si      0.05850   0.37570   0.74030
Si         Si      0.17450   0.62430   0.25970
Si         Si      0.43420   0.74030   0.62430
Si         Si      0.79880   0.25970   0.37570
Si         Si      0.94150   0.25970   0.62430
Si         Si      0.82550   0.74030   0.37570
Si         Si      0.56580   0.37570   0.25970
Si         Si      0.20120   0.62430   0.74030
Si         Si      0.93390   0.74130   0.14570
Si         Si      0.82090   0.25870   0.85430
Si         Si      0.67520   0.14570   0.25870
Si         Si      0.07960   0.85430   0.74130
Si         Si      0.06610   0.85430   0.25870
Si         Si      0.17910   0.14570   0.74130
Si         Si      0.32480   0.74130   0.85430
Si         Si      0.92040   0.25870   0.14570
Si         Si      0.06610   0.25870   0.85430
Si         Si      0.17910   0.74130   0.14570
Si         Si      0.32480   0.85430   0.74130
Si         Si      0.92040   0.14570   0.25870
Si         Si      0.93390   0.14570   0.74130
Si         Si      0.82090   0.85430   0.25870
Si         Si      0.67520   0.25870   0.14570
Si         Si      0.07960   0.74130   0.85430
Si         Si      0.62450   0.55720   0.44280
Si         Si      0.62450   0.44280   0.55720
Si         Si      0.18170   0.44280   0.44280
Si         Si      0.06730   0.55720   0.55720
Si         Si      0.37550   0.55720   0.44280
Si         Si      0.37550   0.44280   0.55720
Si         Si      0.81830   0.55720   0.55720
Si         Si      0.93270   0.44280   0.44280
Si         Si      0.67730   0.88400   0.00000
Si         Si      0.56130   0.11600   0.00000
Si         Si      0.56130   0.00000   0.11600
Si         Si      0.67730   0.00000   0.88400
Si         Si      0.32270   0.00000   0.11600
Si         Si      0.43870   0.00000   0.88400
Si         Si      0.43870   0.88400   0.00000
Si         Si      0.32270   0.11600   0.00000
Si         Si      0.91610   0.77700   0.00000
Si         Si      0.69310   0.22300   0.00000
Si         Si      0.69310   0.00000   0.22300
Si         Si      0.91610   0.00000   0.77700
Si         Si      0.08390   0.00000   0.22300
Si         Si      0.30690   0.00000   0.77700
Si         Si      0.30690   0.77700   0.00000
Si         Si      0.08390   0.22300   0.00000
Si         Si      0.84260   0.50000   0.31480
Si         Si      0.65740   0.50000   0.68520
Si         Si      0.34260   0.31480   0.50000
Si         Si      0.15740   0.68520   0.50000
Si         Si      0.15740   0.50000   0.68520
Si         Si      0.34260   0.50000   0.31480
Si         Si      0.65740   0.68520   0.50000
Si         Si      0.84260   0.31480   0.50000
Si         Si      0.05910   0.88180   0.00000
Si         Si      0.94090   0.11820   0.00000
Si         Si      0.94090   0.00000   0.11820
Si         Si      0.05910   0.00000   0.88180
