data_crystal

_cell_length_a    13.94400
_cell_length_b    14.78727
_cell_length_c    15.56214
_cell_angle_alpha 77.80551
_cell_angle_beta  63.38391
_cell_angle_gamma 61.86917

_space_group_name_Hall 'P 1'
_space_group_name_H-M_alt 'P 1'

loop_
_symmetry_equiv_pos_as_xyz
 'x,y,z'

loop_
_atom_site_label
_atom_site_type_symbol
_atom_site_fract_x
_atom_site_fract_y
_atom_site_fract_z
O          O       0.99830   0.81600   0.82260
O          O       0.82090   0.81600   0.17740
O          O       0.81430   0.18400   0.82260
O          O       0.63690   0.18400   0.17740
O          O       0.00170   0.18400   0.17740
O          O       0.17910   0.18400   0.82260
O          O       0.18570   0.81600   0.17740
O          O       0.36310   0.81600   0.82260
O          O       0.17420   0.80420   0.66020
O          O       0.83440   0.80420   0.33980
O          O       0.97840   0.19580   0.66020
O          O       0.63860   0.19580   0.33980
O          O       0.82580   0.19580   0.33980
O          O       0.16560   0.19580   0.66020
O          O       0.02160   0.80420   0.33980
O          O       0.36140   0.80420   0.66020
O          O       0.06320   0.69520   0.68260
O          O       0.74580   0.69520   0.31740
O          O       0.75840   0.30480   0.68260
O          O       0.44100   0.30480   0.31740
O          O       0.93680   0.30480   0.31740
O          O       0.25420   0.30480   0.68260
O          O       0.24160   0.69520   0.31740
O          O       0.55900   0.69520   0.68260
O          O       0.96070   0.89880   0.66580
O          O       0.62650   0.89880   0.33420
O          O       0.85950   0.10120   0.66580
O          O       0.52530   0.10120   0.33420
O          O       0.03930   0.10120   0.33420
O          O       0.37350   0.10120   0.66580
O          O       0.14050   0.89880   0.33420
O          O       0.47470   0.89880   0.66580
O          O       0.00000   0.00000   0.50000
O          O       0.50000   0.00000   0.50000
O          O       0.21010   0.00000   0.39060
O          O       0.60070   0.00000   0.60940
O          O       0.78990   0.00000   0.60940
O          O       0.39930   0.00000   0.39060
O          O       0.92660   0.00000   0.87940
O          O       0.80600   0.00000   0.12060
O          O       0.07340   0.00000   0.12060
O          O       0.19400   0.00000   0.87940
O          O       0.14110   0.85940   0.85840
O          O       0.99950   0.85940   0.14160
O          O       0.00050   0.14060   0.85840
O          O       0.85890   0.14060   0.14160
O          O       0.95340   0.84540   1.00000
O          O       0.79880   0.15460   0.00000
O          O       0.04660   0.15460   0.00000
O          O       0.20120   0.84540   1.00000
O          O       0.59450   0.61800   0.38640
O          O       0.98090   0.61800   0.61360
O          O       0.21250   0.38200   0.38640
O          O       0.59890   0.38200   0.61360
O          O       0.40550   0.38200   0.61360
O          O       0.01910   0.38200   0.38640
O          O       0.78750   0.61800   0.61360
O          O       0.40110   0.61800   0.38640
O          O       0.38580   0.69740   0.53100
O          O       0.91680   0.69740   0.46900
O          O       0.08320   0.30260   0.53100
O          O       0.61420   0.30260   0.46900
O          O       0.50000   0.50000   0.50000
O          O       1.00000   0.50000   0.50000
O          O       0.17950   0.64100   0.50000
O          O       0.67950   0.64100   0.50000
O          O       0.82050   0.35900   0.50000
O          O       0.32050   0.35900   0.50000
O          O       0.31700   0.50000   0.36600
O          O       0.68300   0.50000   0.63400
O          O       0.81700   0.50000   0.36600
O          O       0.18300   0.50000   0.63400
O          O       0.28910   0.89900   0.52280
O          O       0.81190   0.89900   0.47720
O          O       0.18810   0.10100   0.52280
O          O       0.71090   0.10100   0.47720
Si         Si      0.04590   0.80300   0.70860
Si         Si      0.75450   0.80300   0.29140
Si         Si      0.84890   0.19700   0.70860
Si         Si      0.55750   0.19700   0.29140
Si         Si      0.95410   0.19700   0.29140
Si         Si      0.24550   0.19700   0.70860
Si         Si      0.15110   0.80300   0.29140
Si         Si      0.44250   0.80300   0.70860
Si         Si      0.00570   0.87980   0.88980
Si         Si      0.89550   0.87980   0.11020
Si         Si      0.88550   0.12020   0.88980
Si         Si      0.77530   0.12020   0.11020
Si         Si      0.99430   0.12020   0.11020
Si         Si      0.10450   0.12020   0.88980
Si         Si      0.11450   0.87980   0.11020
Si         Si      0.22470   0.87980   0.88980
Si         Si      0.28460   0.61280   0.39400
Si         Si      0.67860   0.61280   0.60600
Si         Si      0.89740   0.38720   0.39400
Si         Si      0.29140   0.38720   0.60600
Si         Si      0.71540   0.38720   0.60600
Si         Si      0.32140   0.38720   0.39400
Si         Si      0.10260   0.61280   0.60600
Si         Si      0.70860   0.61280   0.39400
Si         Si      0.47030   0.61040   0.44900
Si         Si      0.91930   0.61040   0.55100
Si         Si      0.08070   0.38960   0.44900
Si         Si      0.52970   0.38960   0.55100
Si         Si      0.30280   0.80120   0.59320
Si         Si      0.89600   0.80120   0.40680
Si         Si      0.10400   0.19880   0.59320
Si         Si      0.69720   0.19880   0.40680
Si         Si      0.09410   0.00000   0.39160
Si         Si      0.48570   0.00000   0.60840
Si         Si      0.90590   0.00000   0.60840
Si         Si      0.51430   0.00000   0.39160
Si         Si      0.27160   0.00000   0.45680
Si         Si      0.72840   0.00000   0.54320
