data_crystal

_cell_length_a    12.71300
_cell_length_b    12.71100
_cell_length_c    41.69100
_cell_angle_alpha 90.00000
_cell_angle_beta  90.00000
_cell_angle_gamma 90.00000

_space_group_name_Hall 'P 1'
_space_group_name_H-M_alt 'P 1'

loop_
_symmetry_equiv_pos_as_xyz
 'x,y,z'

loop_
_atom_site_label
_atom_site_type_symbol
_atom_site_fract_x
_atom_site_fract_y
_atom_site_fract_z
Si         Si      0.89480   0.12170   0.38100
Si         Si      0.39480   0.12170   0.11900
Si         Si      0.60520   0.12170   0.88100
Si         Si      0.10520   0.12170   0.61900
Si         Si      0.10520   0.87830   0.61900
Si         Si      0.60520   0.87830   0.88100
Si         Si      0.39480   0.87830   0.11900
Si         Si      0.89480   0.87830   0.38100
Si         Si      0.68980   0.12190   0.41830
Si         Si      0.18980   0.12190   0.08170
Si         Si      0.81020   0.12190   0.91830
Si         Si      0.31020   0.12190   0.58170
Si         Si      0.31020   0.87810   0.58170
Si         Si      0.81020   0.87810   0.91830
Si         Si      0.18980   0.87810   0.08170
Si         Si      0.68980   0.87810   0.41830
Si         Si      0.56470   0.12140   0.35490
Si         Si      0.06470   0.12140   0.14510
Si         Si      0.93530   0.12140   0.85490
Si         Si      0.43530   0.12140   0.64510
Si         Si      0.43530   0.87860   0.64510
Si         Si      0.93530   0.87860   0.85490
Si         Si      0.06470   0.87860   0.14510
Si         Si      0.56470   0.87860   0.35490
Si         Si      0.76960   0.12100   0.31720
Si         Si      0.26960   0.12100   0.18280
Si         Si      0.73040   0.12100   0.81720
Si         Si      0.23040   0.12100   0.68280
Si         Si      0.23040   0.87900   0.68280
Si         Si      0.73040   0.87900   0.81720
Si         Si      0.26960   0.87900   0.18280
Si         Si      0.76960   0.87900   0.31720
Si         Si      0.89690   0.50000   0.37870
Si         Si      0.39690   0.50000   0.12130
Si         Si      0.60310   0.50000   0.87870
Si         Si      0.10310   0.50000   0.62130
Si         Si      0.68090   0.50000   0.41870
Si         Si      0.18090   0.50000   0.08130
Si         Si      0.81910   0.50000   0.91870
Si         Si      0.31910   0.50000   0.58130
Si         Si      0.55870   0.50000   0.35740
Si         Si      0.05870   0.50000   0.14260
Si         Si      0.94130   0.50000   0.85740
Si         Si      0.44130   0.50000   0.64260
Si         Si      0.77470   0.50000   0.31740
Si         Si      0.27470   0.50000   0.18260
Si         Si      0.72530   0.50000   0.81740
Si         Si      0.22530   0.50000   0.68260
Si         Si      0.40670   0.30600   0.35120
Si         Si      0.90670   0.30600   0.14880
Si         Si      0.09330   0.30600   0.85120
Si         Si      0.59330   0.30600   0.64880
Si         Si      0.59330   0.69400   0.64880
Si         Si      0.09330   0.69400   0.85120
Si         Si      0.90670   0.69400   0.14880
Si         Si      0.40670   0.69400   0.35120
Si         Si      0.04740   0.30840   0.37980
Si         Si      0.54740   0.30840   0.12020
Si         Si      0.45260   0.30840   0.87980
Si         Si      0.95260   0.30840   0.62020
Si         Si      0.95260   0.69160   0.62020
Si         Si      0.45260   0.69160   0.87980
Si         Si      0.54740   0.69160   0.12020
Si         Si      0.04740   0.69160   0.37980
Si         Si      0.84530   0.30810   0.27770
Si         Si      0.34530   0.30810   0.22230
Si         Si      0.65470   0.30810   0.77770
Si         Si      0.15470   0.30810   0.72230
Si         Si      0.15470   0.69190   0.72230
Si         Si      0.65470   0.69190   0.77770
Si         Si      0.34530   0.69190   0.22230
Si         Si      0.84530   0.69190   0.27770
Si         Si      0.61830   0.30710   0.46060
Si         Si      0.11830   0.30710   0.03940
Si         Si      0.88170   0.30710   0.96060
Si         Si      0.38170   0.30710   0.53940
Si         Si      0.38170   0.69290   0.53940
Si         Si      0.88170   0.69290   0.96060
Si         Si      0.11830   0.69290   0.03940
Si         Si      0.61830   0.69290   0.46060
Si         Si      0.28790   0.38010   0.29110
Si         Si      0.78790   0.38010   0.20890
Si         Si      0.21210   0.38010   0.79110
Si         Si      0.71210   0.38010   0.70890
Si         Si      0.71210   0.61990   0.70890
Si         Si      0.21210   0.61990   0.79110
Si         Si      0.78790   0.61990   0.20890
Si         Si      0.28790   0.61990   0.29110
Si         Si      0.05610   0.37990   0.30900
Si         Si      0.55610   0.37990   0.19100
Si         Si      0.44390   0.37990   0.80900
Si         Si      0.94390   0.37990   0.69100
Si         Si      0.94390   0.62010   0.69100
Si         Si      0.44390   0.62010   0.80900
Si         Si      0.55610   0.62010   0.19100
Si         Si      0.05610   0.62010   0.30900
Si         Si      0.26350   0.37910   0.40650
Si         Si      0.76350   0.37910   0.09350
Si         Si      0.23650   0.37910   0.90650
Si         Si      0.73650   0.37910   0.59350
Si         Si      0.73650   0.62090   0.59350
Si         Si      0.23650   0.62090   0.90650
Si         Si      0.76350   0.62090   0.09350
Si         Si      0.26350   0.62090   0.40650
Si         Si      0.39220   0.37900   0.46910
Si         Si      0.89220   0.37900   0.03090
Si         Si      0.10780   0.37900   0.96910
Si         Si      0.60780   0.37900   0.53090
Si         Si      0.60780   0.62100   0.53090
Si         Si      0.10780   0.62100   0.96910
Si         Si      0.89220   0.62100   0.03090
Si         Si      0.39220   0.62100   0.46910
O          O       0.81230   0.13820   0.40990
O          O       0.31230   0.13820   0.09010
O          O       0.68770   0.13820   0.90990
O          O       0.18770   0.13820   0.59010
O          O       0.18770   0.86180   0.59010
O          O       0.68770   0.86180   0.90990
O          O       0.31230   0.86180   0.09010
O          O       0.81230   0.86180   0.40990
O          O       0.92960   1.00000   0.37940
O          O       0.42960   1.00000   0.12060
O          O       0.57040   0.00000   0.87940
O          O       0.07040   1.00000   0.62060
O          O       0.83980   0.15470   0.34770
O          O       0.33980   0.15470   0.15230
O          O       0.66020   0.15470   0.84770
O          O       0.16020   0.15470   0.65230
O          O       0.16020   0.84530   0.65230
O          O       0.66020   0.84530   0.84770
O          O       0.33980   0.84530   0.15230
O          O       0.83980   0.84530   0.34770
O          O       0.99730   0.19410   0.38640
O          O       0.49730   0.19410   0.11360
O          O       0.50270   0.19410   0.88640
O          O       0.00270   0.19410   0.61360
O          O       0.00270   0.80590   0.61360
O          O       0.50270   0.80590   0.88640
O          O       0.49730   0.80590   0.11360
O          O       0.99730   0.80590   0.38640
O          O       0.66800   0.00000   0.42640
O          O       0.16800   1.00000   0.07360
O          O       0.83200   0.00000   0.92640
O          O       0.33200   0.00000   0.57360
O          O       0.61960   0.15680   0.38800
O          O       0.11960   0.15680   0.11200
O          O       0.88040   0.15680   0.88800
O          O       0.38040   0.15680   0.61200
O          O       0.38040   0.84320   0.61200
O          O       0.88040   0.84320   0.88800
O          O       0.11960   0.84320   0.11200
O          O       0.61960   0.84320   0.38800
O          O       0.65750   0.19310   0.44870
O          O       0.15750   0.19310   0.05130
O          O       0.84250   0.19310   0.94870
O          O       0.34250   0.19310   0.55130
O          O       0.34250   0.80690   0.55130
O          O       0.84250   0.80690   0.94870
O          O       0.15750   0.80690   0.05130
O          O       0.65750   0.80690   0.44870
O          O       0.52960   1.00000   0.35750
O          O       0.02960   1.00000   0.14250
O          O       0.97040   0.00000   0.85750
O          O       0.47040   1.00000   0.64250
O          O       0.64690   0.13530   0.32580
O          O       0.14690   0.13530   0.17420
O          O       0.85310   0.13530   0.82580
O          O       0.35310   0.13530   0.67420
O          O       0.35310   0.86470   0.67420
O          O       0.85310   0.86470   0.82580
O          O       0.14690   0.86470   0.17420
O          O       0.64690   0.86470   0.32580
O          O       0.46210   0.19250   0.34850
O          O       0.96210   0.19250   0.15150
O          O       0.03790   0.19250   0.84850
O          O       0.53790   0.19250   0.65150
O          O       0.53790   0.80750   0.65150
O          O       0.03790   0.80750   0.84850
O          O       0.96210   0.80750   0.15150
O          O       0.46210   0.80750   0.34850
O          O       0.79280   1.00000   0.30840
O          O       0.29280   0.00000   0.19160
O          O       0.70720   1.00000   0.80840
O          O       0.20720   1.00000   0.69160
O          O       0.79980   0.19390   0.28700
O          O       0.29980   0.19390   0.21300
O          O       0.70020   0.19390   0.78700
O          O       0.20020   0.19390   0.71300
O          O       0.20020   0.80610   0.71300
O          O       0.70020   0.80610   0.78700
O          O       0.29980   0.80610   0.21300
O          O       0.79980   0.80610   0.28700
O          O       0.78560   0.50000   0.39710
O          O       0.28560   0.50000   0.10290
O          O       0.71440   0.50000   0.89710
O          O       0.21440   0.50000   0.60290
O          O       0.87590   0.50000   0.34060
O          O       0.37590   0.50000   0.15940
O          O       0.62410   0.50000   0.84060
O          O       0.12410   0.50000   0.65940
O          O       0.96180   0.39670   0.38910
O          O       0.46180   0.39670   0.11090
O          O       0.53820   0.39670   0.88910
O          O       0.03820   0.39670   0.61090
O          O       0.03820   0.60330   0.61090
O          O       0.53820   0.60330   0.88910
O          O       0.46180   0.60330   0.11090
O          O       0.96180   0.60330   0.38910
O          O       0.57960   0.50000   0.39550
O          O       0.07960   0.50000   0.10450
O          O       0.92040   0.50000   0.89550
O          O       0.42040   0.50000   0.60450
O          O       0.68060   0.39650   0.44100
O          O       0.18060   0.39650   0.05900
O          O       0.81940   0.39650   0.94100
O          O       0.31940   0.39650   0.55900
O          O       0.31940   0.60350   0.55900
O          O       0.81940   0.60350   0.94100
O          O       0.18060   0.60350   0.05900
O          O       0.68060   0.60350   0.44100
O          O       0.67000   0.50000   0.33900
O          O       0.17000   0.50000   0.16100
O          O       0.83000   0.50000   0.83900
O          O       0.33000   0.50000   0.66100
O          O       0.49410   0.39650   0.34720
O          O       0.99410   0.39650   0.15280
O          O       0.00590   0.39650   0.84720
O          O       0.50590   0.39650   0.65280
O          O       0.50590   0.60350   0.65280
O          O       0.00590   0.60350   0.84720
O          O       0.99410   0.60350   0.15280
O          O       0.49410   0.60350   0.34720
O          O       0.77500   0.39680   0.29500
O          O       0.27500   0.39680   0.20500
O          O       0.72500   0.39680   0.79500
O          O       0.22500   0.39680   0.70500
O          O       0.22500   0.60320   0.70500
O          O       0.72500   0.60320   0.79500
O          O       0.27500   0.60320   0.20500
O          O       0.77500   0.60320   0.29500
O          O       0.32010   0.31770   0.32330
O          O       0.82010   0.31770   0.17670
O          O       0.17990   0.31770   0.82330
O          O       0.67990   0.31770   0.67670
O          O       0.67990   0.68230   0.67670
O          O       0.17990   0.68230   0.82330
O          O       0.82010   0.68230   0.17670
O          O       0.32010   0.68230   0.32330
O          O       0.35040   0.31750   0.38560
O          O       0.85040   0.31750   0.11440
O          O       0.14960   0.31750   0.88560
O          O       0.64960   0.31750   0.61440
O          O       0.64960   0.68250   0.61440
O          O       0.14960   0.68250   0.88560
O          O       0.85040   0.68250   0.11440
O          O       0.35040   0.68250   0.38560
O          O       0.07800   0.32090   0.34260
O          O       0.57800   0.32090   0.15740
O          O       0.42200   0.32090   0.84260
O          O       0.92200   0.32090   0.65740
O          O       0.92200   0.67910   0.65740
O          O       0.42200   0.67910   0.84260
O          O       0.57800   0.67910   0.15740
O          O       0.07800   0.67910   0.34260
O          O       0.15070   0.32380   0.40170
O          O       0.65070   0.32380   0.09830
O          O       0.34930   0.32380   0.90170
O          O       0.84930   0.32380   0.59830
O          O       0.84930   0.67620   0.59830
O          O       0.34930   0.67620   0.90170
O          O       0.65070   0.67620   0.09830
O          O       0.15070   0.67620   0.40170
O          O       0.84060   0.32350   0.23940
O          O       0.34060   0.32350   0.26060
O          O       0.65940   0.32350   0.73940
O          O       0.15940   0.32350   0.76060
O          O       0.15940   0.67650   0.76060
O          O       0.65940   0.67650   0.73940
O          O       0.34060   0.67650   0.26060
O          O       0.84060   0.67650   0.23940
O          O       0.96510   0.31830   0.28980
O          O       0.46510   0.31830   0.21020
O          O       0.53490   0.31830   0.78980
O          O       0.03490   0.31830   0.71020
O          O       0.03490   0.68170   0.71020
O          O       0.53490   0.68170   0.78980
O          O       0.46510   0.68170   0.21020
O          O       0.96510   0.68170   0.28980
O          O       0.49390   0.32040   0.45450
O          O       0.99390   0.32040   0.04550
O          O       0.00610   0.32040   0.95450
O          O       0.50610   0.32040   0.54550
O          O       0.50610   0.67960   0.54550
O          O       0.00610   0.67960   0.95450
O          O       0.99390   0.67960   0.04550
O          O       0.49390   0.67960   0.45450
O          O       0.64260   0.32060   0.49830
O          O       0.14260   0.32060   0.00170
O          O       0.85740   0.32060   0.99830
O          O       0.35740   0.32060   0.50170
O          O       0.35740   0.67940   0.50170
O          O       0.85740   0.67940   0.99830
O          O       0.14260   0.67940   0.00170
O          O       0.64260   0.67940   0.49830
O          O       0.32800   0.50000   0.29340
O          O       0.82800   0.50000   0.20660
O          O       0.17200   0.50000   0.79340
O          O       0.67200   0.50000   0.70660
O          O       0.16170   0.37890   0.28770
O          O       0.66170   0.37890   0.21230
O          O       0.33830   0.37890   0.78770
O          O       0.83830   0.37890   0.71230
O          O       0.83830   0.62110   0.71230
O          O       0.33830   0.62110   0.78770
O          O       0.66170   0.62110   0.21230
O          O       0.16170   0.62110   0.28770
O          O       0.02150   0.50000   0.31540
O          O       0.52150   0.50000   0.18460
O          O       0.47850   0.50000   0.81540
O          O       0.97850   0.50000   0.68460
O          O       0.25750   0.50000   0.39520
O          O       0.75750   0.50000   0.10480
O          O       0.24250   0.50000   0.89520
O          O       0.74250   0.50000   0.60480
O          O       0.29660   0.37410   0.44380
O          O       0.79660   0.37410   0.05620
O          O       0.20340   0.37410   0.94380
O          O       0.70340   0.37410   0.55620
O          O       0.70340   0.62590   0.55620
O          O       0.20340   0.62590   0.94380
O          O       0.79660   0.62590   0.05620
O          O       0.29660   0.62590   0.44380
O          O       0.42020   0.50000   0.47660
O          O       0.92020   0.50000   0.02340
O          O       0.07980   0.50000   0.97660
O          O       0.57980   0.50000   0.52340
