data_crystal

_cell_length_a    5.25600
_cell_length_b    7.45000
_cell_length_c    8.15900
_cell_angle_alpha 90.00000
_cell_angle_beta  90.00000
_cell_angle_gamma 90.00000

_space_group_name_Hall 'P 1'
_space_group_name_H-M_alt 'P 1'

loop_
_symmetry_equiv_pos_as_xyz
 'x,y,z'

loop_
_atom_site_label
_atom_site_type_symbol
_atom_site_fract_x
_atom_site_fract_y
_atom_site_fract_z
Si         Si      0.25000   0.21110   0.10420
Si         Si      0.25000   0.78890   0.10420
Si         Si      0.75000   0.78890   0.89580
Si         Si      0.75000   0.21110   0.89580
Si         Si      0.25000   0.50000   0.38650
Si         Si      0.75000   0.50000   0.61350
O          O       0.00000   0.26120   0.00000
O          O       0.50000   0.26120   0.00000
O          O       0.00000   0.73880   0.00000
O          O       0.50000   0.73880   0.00000
O          O       0.25000   0.00000   0.14550
O          O       0.75000   0.00000   0.85450
O          O       0.25000   0.32350   0.27280
O          O       0.25000   0.67650   0.27280
O          O       0.75000   0.67650   0.72720
O          O       0.75000   0.32350   0.72720
O          O       0.50000   0.50000   0.50000
O          O       0.00000   0.50000   0.50000
