data_crystal

_cell_length_a    8.20650
_cell_length_b    13.45472
_cell_length_c    14.13640
_cell_angle_alpha 90.00000
_cell_angle_beta  90.00000
_cell_angle_gamma 92.87484

_space_group_name_Hall 'P 1'
_space_group_name_H-M_alt 'P 1'

loop_
_symmetry_equiv_pos_as_xyz
 'x,y,z'

loop_
_atom_site_label
_atom_site_type_symbol
_atom_site_fract_x
_atom_site_fract_y
_atom_site_fract_z
Si         Si      0.60340   0.75963   0.67558
Si         Si      0.89660   0.74037   0.17558
Si         Si      0.39660   0.24037   0.32442
Si         Si      0.10340   0.25963   0.82442
Si         Si      0.60163   0.38897   0.69489
Si         Si      0.89837   0.11103   0.19489
Si         Si      0.39837   0.61103   0.30511
Si         Si      0.10163   0.88897   0.80511
Si         Si      0.38753   0.68935   0.94755
Si         Si      0.11247   0.81065   0.44755
Si         Si      0.61247   0.31065   0.05245
Si         Si      0.88753   0.18935   0.55245
Si         Si      0.15983   0.57928   0.62826
Si         Si      0.34017   0.92072   0.12826
Si         Si      0.84017   0.42072   0.37174
Si         Si      0.65983   0.07928   0.87174
Si         Si      0.43514   0.58077   0.77365
Si         Si      0.06486   0.91923   0.27365
Si         Si      0.56486   0.41923   0.22635
Si         Si      0.93514   0.08077   0.72635
Si         Si      0.46802   0.88229   0.82846
Si         Si      0.03198   0.61771   0.32846
Si         Si      0.53198   0.11771   0.17154
Si         Si      0.96802   0.38229   0.67154
Si         Si      0.98226   0.76330   0.64466
Si         Si      0.51774   0.73670   0.14466
Si         Si      0.01774   0.23670   0.35534
Si         Si      0.48226   0.26330   0.85534
Si         Si      0.39925   0.69411   0.49581
Si         Si      0.10075   0.80589   0.99581
Si         Si      0.60075   0.30589   0.50419
Si         Si      0.89925   0.19411   0.00419
O          O       0.51825   0.35118   0.59720
O          O       0.98175   0.14882   0.09720
O          O       0.48175   0.64882   0.40280
O          O       0.01825   0.85118   0.90280
O          O       0.78817   0.42509   0.67368
O          O       0.71183   0.07491   0.17368
O          O       0.21183   0.57491   0.32632
O          O       0.28817   0.92509   0.82632
O          O       0.49845   0.47465   0.74200
O          O       0.00155   0.02535   0.24200
O          O       0.50155   0.52535   0.25800
O          O       0.99845   0.97465   0.75800
O          O       0.00251   0.64630   0.62722
O          O       0.49749   0.85370   0.12722
O          O       0.99749   0.35370   0.37278
O          O       0.50251   0.14630   0.87278
O          O       0.60051   0.29822   0.76934
O          O       0.89949   0.20178   0.26934
O          O       0.39949   0.70178   0.23066
O          O       0.10051   0.79822   0.73066
O          O       0.51721   0.85291   0.72200
O          O       0.98279   0.64709   0.22200
O          O       0.48279   0.14709   0.27800
O          O       0.01721   0.35291   0.77800
O          O       0.53452   0.73138   0.57200
O          O       0.96548   0.76862   0.07200
O          O       0.46548   0.26862   0.42800
O          O       0.03452   0.23138   0.92800
O          O       0.40741   0.58982   0.88611
O          O       0.09259   0.91018   0.38611
O          O       0.59259   0.41018   0.11389
O          O       0.90741   0.08982   0.61389
O          O       0.27463   0.60988   0.53950
O          O       0.22537   0.89012   0.03950
O          O       0.72537   0.39012   0.46050
O          O       0.77463   0.10988   0.96050
O          O       0.09775   0.46389   0.62831
O          O       0.40225   0.03611   0.12831
O          O       0.90225   0.53611   0.37169
O          O       0.59775   0.96389   0.87169
O          O       0.26466   0.60174   0.72286
O          O       0.23534   0.89826   0.22286
O          O       0.73534   0.39826   0.27714
O          O       0.76466   0.10174   0.77714
O          O       0.47109   0.78390   0.89321
O          O       0.02891   0.71610   0.39321
O          O       0.52891   0.21610   0.10679
O          O       0.97109   0.28390   0.60679
O          O       0.79689   0.78513   0.67117
O          O       0.70311   0.71487   0.17117
O          O       0.20311   0.21487   0.32883
O          O       0.29689   0.28513   0.82883
O          O       0.46978   0.67586   0.04981
O          O       0.03022   0.82414   0.54981
O          O       0.53022   0.32414   0.95019
O          O       0.96978   0.17586   0.45019
O          O       0.19799   0.71048   0.96329
O          O       0.30201   0.78952   0.46329
O          O       0.80201   0.28952   0.03671
O          O       0.69799   0.21048   0.53671
O          O       0.57212   0.66486   0.74393
O          O       0.92788   0.83514   0.24393
O          O       0.42788   0.33514   0.25607
O          O       0.07212   0.16486   0.75607
