data_crystal

_cell_length_a    7.13860
_cell_length_b    12.70910
_cell_length_c    13.47050
_cell_angle_alpha 90.00000
_cell_angle_beta  90.00000
_cell_angle_gamma 90.00000

_space_group_name_Hall 'P 1'
_space_group_name_H-M_alt 'P 1'

loop_
_symmetry_equiv_pos_as_xyz
 'x,y,z'

loop_
_atom_site_label
_atom_site_type_symbol
_atom_site_fract_x
_atom_site_fract_y
_atom_site_fract_z
Si         Si      0.99610   0.58400   0.63250
Si         Si      0.00390   0.41600   0.13250
Si         Si      0.00390   0.08400   0.86750
Si         Si      0.99610   0.91600   0.36750
Si         Si      0.00390   0.41600   0.36750
Si         Si      0.99610   0.58400   0.86750
Si         Si      0.99610   0.91600   0.13250
Si         Si      0.00390   0.08400   0.63250
Si         Si      0.28640   0.03400   0.01900
Si         Si      0.71360   0.96600   0.51900
Si         Si      0.71360   0.53400   0.48100
Si         Si      0.28640   0.46600   0.98100
Si         Si      0.71360   0.96600   0.98100
Si         Si      0.28640   0.03400   0.48100
Si         Si      0.28640   0.46600   0.51900
Si         Si      0.71360   0.53400   0.01900
Si         Si      0.14480   0.25000   0.00000
Si         Si      0.85520   0.75000   0.50000
Si         Si      0.85520   0.75000   0.00000
Si         Si      0.14480   0.25000   0.50000
O          O       0.83600   0.51400   0.57980
O          O       0.16400   0.48600   0.07980
O          O       0.16400   0.01400   0.92020
O          O       0.83600   0.98600   0.42020
O          O       0.16400   0.48600   0.42020
O          O       0.83600   0.51400   0.92020
O          O       0.83600   0.98600   0.07980
O          O       0.16400   0.01400   0.57980
O          O       0.19780   0.53310   0.60890
O          O       0.80220   0.46690   0.10890
O          O       0.80220   0.03310   0.89110
O          O       0.19780   0.96690   0.39110
O          O       0.80220   0.46690   0.39110
O          O       0.19780   0.53310   0.89110
O          O       0.19780   0.96690   0.10890
O          O       0.80220   0.03310   0.60890
O          O       0.98510   0.70080   0.58610
O          O       0.01490   0.29920   0.08610
O          O       0.01490   0.20080   0.91390
O          O       0.98510   0.79920   0.41390
O          O       0.01490   0.29920   0.41390
O          O       0.98510   0.70080   0.91390
O          O       0.98510   0.79920   0.08610
O          O       0.01490   0.20080   0.58610
O          O       0.95860   0.58860   0.75000
O          O       0.04140   0.41140   0.25000
O          O       0.04140   0.08860   0.75000
O          O       0.95860   0.91140   0.25000
O          O       0.27460   0.15770   0.04470
O          O       0.72540   0.84230   0.54470
O          O       0.72540   0.65770   0.45530
O          O       0.27460   0.34230   0.95530
O          O       0.72540   0.84230   0.95530
O          O       0.27460   0.15770   0.45530
O          O       0.27460   0.34230   0.54470
O          O       0.72540   0.65770   0.04470
O          O       0.50000   0.00000   0.00000
O          O       0.50000   0.00000   0.50000
O          O       0.50000   0.50000   0.50000
O          O       0.50000   0.50000   0.00000
