data_crystal

_cell_length_a    8.16500
_cell_length_b    9.20000
_cell_length_c    10.61119
_cell_angle_alpha 115.69017
_cell_angle_beta  112.62731
_cell_angle_gamma 90.00000

_space_group_name_Hall 'P 1'
_space_group_name_H-M_alt 'P 1'

loop_
_symmetry_equiv_pos_as_xyz
 'x,y,z'

loop_
_atom_site_label
_atom_site_type_symbol
_atom_site_fract_x
_atom_site_fract_y
_atom_site_fract_z
O          O       0.75000   0.19140   0.00000
O          O       0.25000   0.30860   0.00000
O          O       0.58610   0.02270   0.07860
O          O       0.49250   0.55590   0.07860
O          O       0.91390   0.94410   0.92140
O          O       0.00750   0.47730   0.92140
O          O       0.88980   0.23420   0.28380
O          O       0.39400   0.54960   0.28380
O          O       0.61020   0.95040   0.71620
O          O       0.10600   0.26580   0.71620
O          O       0.59160   0.34160   0.18320
O          O       0.90840   0.15840   0.81680
O          O       0.15280   0.11490   0.21000
O          O       0.05720   0.59510   0.21000
O          O       0.34720   0.90490   0.79000
O          O       0.44280   0.38510   0.79000
O          O       0.25000   0.90550   0.00000
O          O       0.75000   0.59450   0.00000
O          O       0.04700   0.79700   0.09400
O          O       0.45300   0.70300   0.90600
O          O       0.31600   0.06600   0.63200
O          O       0.18400   0.43400   0.36800
O          O       0.19980   0.25000   0.50000
O          O       0.30020   0.75000   0.50000
Si         Si      0.70310   0.19860   0.13660
Si         Si      0.43350   0.43800   0.13660
Si         Si      0.79690   0.06200   0.86340
Si         Si      0.06650   0.30140   0.86340
Si         Si      0.09070   0.94000   0.05620
Si         Si      0.96550   0.61620   0.05620
Si         Si      0.40930   0.88380   0.94380
Si         Si      0.53450   0.56000   0.94380
Si         Si      0.26630   0.24330   0.66060
Si         Si      0.39430   0.91730   0.66060
Si         Si      0.23370   0.58270   0.33940
Si         Si      0.10570   0.25670   0.33940
