data_crystal

_cell_length_a    6.92310
_cell_length_b    8.71720
_cell_length_c    14.94600
_cell_angle_alpha 96.99200
_cell_angle_beta  90.00000
_cell_angle_gamma 90.00000

_space_group_name_Hall 'P 1'
_space_group_name_H-M_alt 'P 1'

loop_
_symmetry_equiv_pos_as_xyz
 'x,y,z'

loop_
_atom_site_label
_atom_site_type_symbol
_atom_site_fract_x
_atom_site_fract_y
_atom_site_fract_z
Si         Si      0.87840   0.18200   0.75220
Si         Si      0.87840   0.81800   0.74780
Si         Si      0.12160   0.81800   0.24780
Si         Si      0.12160   0.18200   0.25220
Si         Si      0.11090   0.36320   0.08870
Si         Si      0.11090   0.63680   0.41130
Si         Si      0.88910   0.63680   0.91130
Si         Si      0.88910   0.36320   0.58870
Si         Si      0.85020   0.34940   0.38960
Si         Si      0.85020   0.65060   0.11040
Si         Si      0.14980   0.65060   0.61040
Si         Si      0.14980   0.34940   0.88960
Si         Si      0.56430   0.57890   0.66450
Si         Si      0.56430   0.42110   0.83550
Si         Si      0.43570   0.42110   0.33550
Si         Si      0.43570   0.57890   0.16450
O          O       0.70060   0.27600   0.80200
O          O       0.70060   0.72400   0.69800
O          O       0.29940   0.72400   0.19800
O          O       0.29940   0.27600   0.30200
O          O       0.89440   0.22450   0.65060
O          O       0.89440   0.77550   0.84940
O          O       0.10560   0.77550   0.34940
O          O       0.10560   0.22450   0.15060
O          O       0.07430   0.22830   0.80710
O          O       0.07430   0.77170   0.69290
O          O       0.92570   0.77170   0.19290
O          O       0.92570   0.22830   0.30710
O          O       0.83790   0.00000   0.75000
O          O       0.16210   0.00000   0.25000
O          O       0.08220   0.29620   0.98420
O          O       0.08220   0.70380   0.51580
O          O       0.91780   0.70380   0.01580
O          O       0.91780   0.29620   0.48420
O          O       0.93930   0.48260   0.11970
O          O       0.93930   0.51740   0.38030
O          O       0.06070   0.51740   0.88030
O          O       0.06070   0.48260   0.61970
O          O       0.31480   0.45250   0.09980
O          O       0.31480   0.54750   0.40020
O          O       0.68520   0.54750   0.90020
O          O       0.68520   0.45250   0.59980
O          O       0.61810   0.36110   0.38830
O          O       0.61810   0.63890   0.11170
O          O       0.38190   0.63890   0.61170
O          O       0.38190   0.36110   0.88830
O          O       0.48860   0.50000   0.75000
O          O       0.51140   0.50000   0.25000
