data_crystal

_cell_length_a    19.84503
_cell_length_b    19.84503
_cell_length_c    19.84503
_cell_angle_alpha 90.00000
_cell_angle_beta  90.00000
_cell_angle_gamma 90.00000

_space_group_name_Hall 'P 1'
_space_group_name_H-M_alt 'P 1'

loop_
_symmetry_equiv_pos_as_xyz
 'x,y,z'

loop_
_atom_site_label
_atom_site_type_symbol
_atom_site_fract_x
_atom_site_fract_y
_atom_site_fract_z
Si         Si      0.06865   0.36877   0.42815
Si         Si      0.56865   0.13123   0.57185
Si         Si      0.93135   0.86877   0.07185
Si         Si      0.43135   0.63123   0.92815
Si         Si      0.42815   0.06865   0.36877
Si         Si      0.92815   0.43135   0.63123
Si         Si      0.57185   0.56865   0.13123
Si         Si      0.07185   0.93135   0.86877
Si         Si      0.36877   0.42815   0.06865
Si         Si      0.86877   0.07185   0.93135
Si         Si      0.63123   0.92815   0.43135
Si         Si      0.13123   0.57185   0.56865
Si         Si      0.93135   0.63123   0.57185
Si         Si      0.43135   0.86877   0.42815
Si         Si      0.06865   0.13123   0.92815
Si         Si      0.56865   0.36877   0.07185
Si         Si      0.57185   0.93135   0.63123
Si         Si      0.07185   0.56865   0.36877
Si         Si      0.42815   0.43135   0.86877
Si         Si      0.92815   0.06865   0.13123
Si         Si      0.63123   0.57185   0.93135
Si         Si      0.13123   0.92815   0.06865
Si         Si      0.36877   0.07185   0.56865
Si         Si      0.86877   0.42815   0.43135
Si         Si      0.03477   0.22959   0.46249
Si         Si      0.53477   0.27041   0.53751
Si         Si      0.96523   0.72959   0.03751
Si         Si      0.46523   0.77041   0.96249
Si         Si      0.46249   0.03477   0.22959
Si         Si      0.96249   0.46523   0.77041
Si         Si      0.53751   0.53477   0.27041
Si         Si      0.03751   0.96523   0.72959
Si         Si      0.22959   0.46249   0.03477
Si         Si      0.72959   0.03751   0.96523
Si         Si      0.77041   0.96249   0.46523
Si         Si      0.27041   0.53751   0.53477
Si         Si      0.96523   0.77041   0.53751
Si         Si      0.46523   0.72959   0.46249
Si         Si      0.03477   0.27041   0.96249
Si         Si      0.53477   0.22959   0.03751
Si         Si      0.53751   0.96523   0.77041
Si         Si      0.03751   0.53477   0.22959
Si         Si      0.46249   0.46523   0.72959
Si         Si      0.96249   0.03477   0.27041
Si         Si      0.77041   0.53751   0.96523
Si         Si      0.27041   0.96249   0.03477
Si         Si      0.22959   0.03751   0.53477
Si         Si      0.72959   0.46249   0.46523
Si         Si      0.15790   0.48463   0.45593
Si         Si      0.65790   0.01537   0.54407
Si         Si      0.84210   0.98463   0.04407
Si         Si      0.34210   0.51537   0.95593
Si         Si      0.45593   0.15790   0.48463
Si         Si      0.95593   0.34210   0.51537
Si         Si      0.54407   0.65790   0.01537
Si         Si      0.04407   0.84210   0.98463
Si         Si      0.48463   0.45593   0.15790
Si         Si      0.98463   0.04407   0.84210
Si         Si      0.51537   0.95593   0.34210
Si         Si      0.01537   0.54407   0.65790
Si         Si      0.84210   0.51537   0.54407
Si         Si      0.34210   0.98463   0.45593
Si         Si      0.15790   0.01537   0.95593
Si         Si      0.65790   0.48463   0.04407
Si         Si      0.54407   0.84210   0.51537
Si         Si      0.04407   0.65790   0.48463
Si         Si      0.45593   0.34210   0.98463
Si         Si      0.95593   0.15790   0.01537
Si         Si      0.51537   0.54407   0.84210
Si         Si      0.01537   0.95593   0.15790
Si         Si      0.48463   0.04407   0.65790
Si         Si      0.98463   0.45593   0.34210
Si         Si      0.10222   0.10446   0.50344
Si         Si      0.60222   0.39554   0.49656
Si         Si      0.89778   0.60446   0.99656
Si         Si      0.39778   0.89554   0.00344
Si         Si      0.50344   0.10222   0.10446
Si         Si      0.00344   0.39778   0.89554
Si         Si      0.49656   0.60222   0.39554
Si         Si      0.99656   0.89778   0.60446
Si         Si      0.10446   0.50344   0.10222
Si         Si      0.60446   0.99656   0.89778
Si         Si      0.89554   0.00344   0.39778
Si         Si      0.39554   0.49656   0.60222
Si         Si      0.89778   0.89554   0.49656
Si         Si      0.39778   0.60446   0.50344
Si         Si      0.10222   0.39554   0.00344
Si         Si      0.60222   0.10446   0.99656
Si         Si      0.49656   0.89778   0.89554
Si         Si      0.99656   0.60222   0.10446
Si         Si      0.50344   0.39778   0.60446
Si         Si      0.00344   0.10222   0.39554
Si         Si      0.89554   0.49656   0.89778
Si         Si      0.39554   0.00344   0.10222
Si         Si      0.10446   0.99656   0.60222
Si         Si      0.60446   0.50344   0.39778
O          O       0.01928   0.38643   0.49028
O          O       0.51928   0.11357   0.50972
O          O       0.98072   0.88643   0.00972
O          O       0.48072   0.61357   0.99028
O          O       0.49028   0.01928   0.38643
O          O       0.99028   0.48072   0.61357
O          O       0.50972   0.51928   0.11357
O          O       0.00972   0.98072   0.88643
O          O       0.38643   0.49028   0.01928
O          O       0.88643   0.00972   0.98072
O          O       0.61357   0.99028   0.48072
O          O       0.11357   0.50972   0.51928
O          O       0.98072   0.61357   0.50972
O          O       0.48072   0.88643   0.49028
O          O       0.01928   0.11357   0.99028
O          O       0.51928   0.38643   0.00972
O          O       0.50972   0.98072   0.61357
O          O       0.00972   0.51928   0.38643
O          O       0.49028   0.48072   0.88643
O          O       0.99028   0.01928   0.11357
O          O       0.61357   0.50972   0.98072
O          O       0.11357   0.99028   0.01928
O          O       0.38643   0.00972   0.51928
O          O       0.88643   0.49028   0.48072
O          O       0.13909   0.40777   0.43809
O          O       0.63909   0.09223   0.56191
O          O       0.86091   0.90777   0.06191
O          O       0.36091   0.59223   0.93809
O          O       0.43809   0.13909   0.40777
O          O       0.93809   0.36091   0.59223
O          O       0.56191   0.63909   0.09223
O          O       0.06191   0.86091   0.90777
O          O       0.40777   0.43809   0.13909
O          O       0.90777   0.06191   0.86091
O          O       0.59223   0.93809   0.36091
O          O       0.09223   0.56191   0.63909
O          O       0.86091   0.59223   0.56191
O          O       0.36091   0.90777   0.43809
O          O       0.13909   0.09223   0.93809
O          O       0.63909   0.40777   0.06191
O          O       0.56191   0.86091   0.59223
O          O       0.06191   0.63909   0.40777
O          O       0.43809   0.36091   0.90777
O          O       0.93809   0.13909   0.09223
O          O       0.59223   0.56191   0.86091
O          O       0.09223   0.93809   0.13909
O          O       0.40777   0.06191   0.63909
O          O       0.90777   0.43809   0.36091
O          O       0.03280   0.39290   0.35941
O          O       0.53280   0.10710   0.64059
O          O       0.96720   0.89290   0.14059
O          O       0.46720   0.60710   0.85941
O          O       0.35941   0.03280   0.39290
O          O       0.85941   0.46720   0.60710
O          O       0.64059   0.53280   0.10710
O          O       0.14059   0.96720   0.89290
O          O       0.39290   0.35941   0.03280
O          O       0.89290   0.14059   0.96720
O          O       0.60710   0.85941   0.46720
O          O       0.10710   0.64059   0.53280
O          O       0.96720   0.60710   0.64059
O          O       0.46720   0.89290   0.35941
O          O       0.03280   0.10710   0.85941
O          O       0.53280   0.39290   0.14059
O          O       0.64059   0.96720   0.60710
O          O       0.14059   0.53280   0.39290
O          O       0.35941   0.46720   0.89290
O          O       0.85941   0.03280   0.10710
O          O       0.60710   0.64059   0.96720
O          O       0.10710   0.85941   0.03280
O          O       0.39290   0.14059   0.53280
O          O       0.89290   0.35941   0.46720
O          O       0.07873   0.28821   0.42743
O          O       0.57873   0.21179   0.57257
O          O       0.92127   0.78821   0.07257
O          O       0.42127   0.71179   0.92743
O          O       0.42743   0.07873   0.28821
O          O       0.92743   0.42127   0.71179
O          O       0.57257   0.57873   0.21179
O          O       0.07257   0.92127   0.78821
O          O       0.28821   0.42743   0.07873
O          O       0.78821   0.07257   0.92127
O          O       0.71179   0.92743   0.42127
O          O       0.21179   0.57257   0.57873
O          O       0.92127   0.71179   0.57257
O          O       0.42127   0.78821   0.42743
O          O       0.07873   0.21179   0.92743
O          O       0.57873   0.28821   0.07257
O          O       0.57257   0.92127   0.71179
O          O       0.07257   0.57873   0.28821
O          O       0.42743   0.42127   0.78821
O          O       0.92743   0.07873   0.21179
O          O       0.71179   0.57257   0.92127
O          O       0.21179   0.92743   0.07873
O          O       0.28821   0.07257   0.57873
O          O       0.78821   0.42743   0.42127
O          O       0.00063   0.18273   0.40560
O          O       0.50063   0.31727   0.59440
O          O       0.99937   0.68273   0.09440
O          O       0.49937   0.81727   0.90560
O          O       0.40560   0.00063   0.18273
O          O       0.90560   0.49937   0.81727
O          O       0.59440   0.50063   0.31727
O          O       0.09440   0.99937   0.68273
O          O       0.18273   0.40560   0.00063
O          O       0.68273   0.09440   0.99937
O          O       0.81727   0.90560   0.49937
O          O       0.31727   0.59440   0.50063
O          O       0.99937   0.81727   0.59440
O          O       0.49937   0.68273   0.40560
O          O       0.00063   0.31727   0.90560
O          O       0.50063   0.18273   0.09440
O          O       0.59440   0.99937   0.81727
O          O       0.09440   0.50063   0.18273
O          O       0.40560   0.49937   0.68273
O          O       0.90560   0.00063   0.31727
O          O       0.81727   0.59440   0.99937
O          O       0.31727   0.90560   0.00063
O          O       0.18273   0.09440   0.50063
O          O       0.68273   0.40560   0.49937
O          O       0.08270   0.18308   0.50869
O          O       0.58270   0.31692   0.49131
O          O       0.91730   0.68308   0.99131
O          O       0.41730   0.81692   0.00869
O          O       0.50869   0.08270   0.18308
O          O       0.00869   0.41730   0.81692
O          O       0.49131   0.58270   0.31692
O          O       0.99131   0.91730   0.68308
O          O       0.18308   0.50869   0.08270
O          O       0.68308   0.99131   0.91730
O          O       0.81692   0.00869   0.41730
O          O       0.31692   0.49131   0.58270
O          O       0.91730   0.81692   0.49131
O          O       0.41730   0.68308   0.50869
O          O       0.08270   0.31692   0.00869
O          O       0.58270   0.18308   0.99131
O          O       0.49131   0.91730   0.81692
O          O       0.99131   0.58270   0.18308
O          O       0.50869   0.41730   0.68308
O          O       0.00869   0.08270   0.31692
O          O       0.81692   0.49131   0.91730
O          O       0.31692   0.00869   0.08270
O          O       0.18308   0.99131   0.58270
O          O       0.68308   0.50869   0.41730
O          O       0.97680   0.26400   0.50778
O          O       0.47680   0.23600   0.49222
O          O       0.02320   0.76400   0.99222
O          O       0.52320   0.73600   0.00778
O          O       0.50778   0.97680   0.26400
O          O       0.00778   0.52320   0.73600
O          O       0.49222   0.47680   0.23600
O          O       0.99222   0.02320   0.76400
O          O       0.26400   0.50778   0.97680
O          O       0.76400   0.99222   0.02320
O          O       0.73600   0.00778   0.52320
O          O       0.23600   0.49222   0.47680
O          O       0.02320   0.73600   0.49222
O          O       0.52320   0.76400   0.50778
O          O       0.97680   0.23600   0.00778
O          O       0.47680   0.26400   0.99222
O          O       0.49222   0.02320   0.73600
O          O       0.99222   0.47680   0.26400
O          O       0.50778   0.52320   0.76400
O          O       0.00778   0.97680   0.23600
O          O       0.73600   0.49222   0.02320
O          O       0.23600   0.00778   0.97680
O          O       0.26400   0.99222   0.47680
O          O       0.76400   0.50778   0.52320
O          O       0.06800   0.07436   0.43620
O          O       0.56800   0.42564   0.56380
O          O       0.93200   0.57436   0.06380
O          O       0.43200   0.92564   0.93620
O          O       0.43620   0.06800   0.07436
O          O       0.93620   0.43200   0.92564
O          O       0.56380   0.56800   0.42564
O          O       0.06380   0.93200   0.57436
O          O       0.07436   0.43620   0.06800
O          O       0.57436   0.06380   0.93200
O          O       0.92564   0.93620   0.43200
O          O       0.42564   0.56380   0.56800
O          O       0.93200   0.92564   0.56380
O          O       0.43200   0.57436   0.43620
O          O       0.06800   0.42564   0.93620
O          O       0.56800   0.07436   0.06380
O          O       0.56380   0.93200   0.92564
O          O       0.06380   0.56800   0.07436
O          O       0.43620   0.43200   0.57436
O          O       0.93620   0.06800   0.42564
O          O       0.92564   0.56380   0.93200
O          O       0.42564   0.93620   0.06800
O          O       0.07436   0.06380   0.56800
O          O       0.57436   0.43620   0.43200
