data_crystal

_cell_length_a    14.97000
_cell_length_b    14.97000
_cell_length_c    14.97000
_cell_angle_alpha 90.00000
_cell_angle_beta  90.00000
_cell_angle_gamma 90.00000

_space_group_name_Hall 'P 1'
_space_group_name_H-M_alt 'P 1'

loop_
_symmetry_equiv_pos_as_xyz
 'x,y,z'

loop_
_atom_site_label
_atom_site_type_symbol
_atom_site_fract_x
_atom_site_fract_y
_atom_site_fract_z
Si         Si      0.83800   0.07910   0.06910
Si         Si      0.06910   0.83800   0.07910
Si         Si      0.07910   0.06910   0.83800
Si         Si      0.33800   0.07910   0.43090
Si         Si      0.56910   0.83800   0.42090
Si         Si      0.57910   0.06910   0.66200
Si         Si      0.66200   0.57910   0.06910
Si         Si      0.43090   0.33800   0.07910
Si         Si      0.42090   0.56910   0.83800
Si         Si      0.16200   0.57910   0.43090
Si         Si      0.93090   0.33800   0.42090
Si         Si      0.92090   0.56910   0.66200
Si         Si      0.16200   0.92090   0.93090
Si         Si      0.93090   0.16200   0.92090
Si         Si      0.92090   0.93090   0.16200
Si         Si      0.66200   0.92090   0.56910
Si         Si      0.43090   0.16200   0.57910
Si         Si      0.42090   0.93090   0.33800
Si         Si      0.33800   0.42090   0.93090
Si         Si      0.56910   0.66200   0.92090
Si         Si      0.57910   0.43090   0.16200
Si         Si      0.83800   0.42090   0.56910
Si         Si      0.06910   0.66200   0.57910
Si         Si      0.07910   0.43090   0.33800
Si         Si      0.87100   0.27010   0.07310
Si         Si      0.07310   0.87100   0.27010
Si         Si      0.27010   0.07310   0.87100
Si         Si      0.37100   0.27010   0.42690
Si         Si      0.57310   0.87100   0.22990
Si         Si      0.77010   0.07310   0.62900
Si         Si      0.62900   0.77010   0.07310
Si         Si      0.42690   0.37100   0.27010
Si         Si      0.22990   0.57310   0.87100
Si         Si      0.12900   0.77010   0.42690
Si         Si      0.92690   0.37100   0.22990
Si         Si      0.72990   0.57310   0.62900
Si         Si      0.12900   0.72990   0.92690
Si         Si      0.92690   0.12900   0.72990
Si         Si      0.72990   0.92690   0.12900
Si         Si      0.62900   0.72990   0.57310
Si         Si      0.42690   0.12900   0.77010
Si         Si      0.22990   0.92690   0.37100
Si         Si      0.37100   0.22990   0.92690
Si         Si      0.57310   0.62900   0.72990
Si         Si      0.77010   0.42690   0.12900
Si         Si      0.87100   0.22990   0.57310
Si         Si      0.07310   0.62900   0.77010
Si         Si      0.27010   0.42690   0.37100
O          O       0.87140   0.08490   0.96690
O          O       0.96690   0.87140   0.08490
O          O       0.08490   0.96690   0.87140
O          O       0.37140   0.08490   0.53310
O          O       0.46690   0.87140   0.41510
O          O       0.58490   0.96690   0.62860
O          O       0.62860   0.58490   0.96690
O          O       0.53310   0.37140   0.08490
O          O       0.41510   0.46690   0.87140
O          O       0.12860   0.58490   0.53310
O          O       0.03310   0.37140   0.41510
O          O       0.91510   0.46690   0.62860
O          O       0.12860   0.91510   0.03310
O          O       0.03310   0.12860   0.91510
O          O       0.91510   0.03310   0.12860
O          O       0.62860   0.91510   0.46690
O          O       0.53310   0.12860   0.58490
O          O       0.41510   0.03310   0.37140
O          O       0.37140   0.41510   0.03310
O          O       0.46690   0.62860   0.91510
O          O       0.58490   0.53310   0.12860
O          O       0.87140   0.41510   0.46690
O          O       0.96690   0.62860   0.58490
O          O       0.08490   0.53310   0.37140
O          O       0.74900   0.01920   0.07690
O          O       0.07690   0.74900   0.01920
O          O       0.01920   0.07690   0.74900
O          O       0.24900   0.01920   0.42310
O          O       0.57690   0.74900   0.48080
O          O       0.51920   0.07690   0.75100
O          O       0.75100   0.51920   0.07690
O          O       0.42310   0.24900   0.01920
O          O       0.48080   0.57690   0.74900
O          O       0.25100   0.51920   0.42310
O          O       0.92310   0.24900   0.48080
O          O       0.98080   0.57690   0.75100
O          O       0.25100   0.98080   0.92310
O          O       0.92310   0.25100   0.98080
O          O       0.98080   0.92310   0.25100
O          O       0.75100   0.98080   0.57690
O          O       0.42310   0.25100   0.51920
O          O       0.48080   0.92310   0.24900
O          O       0.24900   0.48080   0.92310
O          O       0.57690   0.75100   0.98080
O          O       0.51920   0.42310   0.25100
O          O       0.74900   0.48080   0.57690
O          O       0.07690   0.75100   0.51920
O          O       0.01920   0.42310   0.24900
O          O       0.82080   0.17970   0.10320
O          O       0.10320   0.82080   0.17970
O          O       0.17970   0.10320   0.82080
O          O       0.32080   0.17970   0.39680
O          O       0.60320   0.82080   0.32030
O          O       0.67970   0.10320   0.67920
O          O       0.67920   0.67970   0.10320
O          O       0.39680   0.32080   0.17970
O          O       0.32030   0.60320   0.82080
O          O       0.17920   0.67970   0.39680
O          O       0.89680   0.32080   0.32030
O          O       0.82030   0.60320   0.67920
O          O       0.17920   0.82030   0.89680
O          O       0.89680   0.17920   0.82030
O          O       0.82030   0.89680   0.17920
O          O       0.67920   0.82030   0.60320
O          O       0.39680   0.17920   0.67970
O          O       0.32030   0.89680   0.32080
O          O       0.32080   0.32030   0.89680
O          O       0.60320   0.67920   0.82030
O          O       0.67970   0.39680   0.17920
O          O       0.82080   0.32030   0.60320
O          O       0.10320   0.67920   0.67970
O          O       0.17970   0.39680   0.32080
O          O       0.93980   0.29950   0.15050
O          O       0.15050   0.93980   0.29950
O          O       0.29950   0.15050   0.93980
O          O       0.43980   0.29950   0.34950
O          O       0.65050   0.93980   0.20050
O          O       0.79950   0.15050   0.56020
O          O       0.56020   0.79950   0.15050
O          O       0.34950   0.43980   0.29950
O          O       0.20050   0.65050   0.93980
O          O       0.06020   0.79950   0.34950
O          O       0.84950   0.43980   0.20050
O          O       0.70050   0.65050   0.56020
O          O       0.06020   0.70050   0.84950
O          O       0.84950   0.06020   0.70050
O          O       0.70050   0.84950   0.06020
O          O       0.56020   0.70050   0.65050
O          O       0.34950   0.06020   0.79950
O          O       0.20050   0.84950   0.43980
O          O       0.43980   0.20050   0.84950
O          O       0.65050   0.56020   0.70050
O          O       0.79950   0.34950   0.06020
O          O       0.93980   0.20050   0.65050
O          O       0.15050   0.56020   0.79950
O          O       0.29950   0.34950   0.43980
