data_crystal

_cell_length_a    9.66550
_cell_length_b    16.01850
_cell_length_c    16.83310
_cell_angle_alpha 90.00000
_cell_angle_beta  90.00000
_cell_angle_gamma 90.00000

_space_group_name_Hall 'P 1'
_space_group_name_H-M_alt 'P 1'

loop_
_symmetry_equiv_pos_as_xyz
 'x,y,z'

loop_
_atom_site_label
_atom_site_type_symbol
_atom_site_fract_x
_atom_site_fract_y
_atom_site_fract_z
Si         Si      0.92780   0.79470   0.91330
Si         Si      0.07220   0.70530   0.41330
Si         Si      0.42780   0.20530   0.58670
Si         Si      0.57220   0.29470   0.08670
Si         Si      0.07220   0.20530   0.08670
Si         Si      0.92780   0.29470   0.58670
Si         Si      0.57220   0.79470   0.41330
Si         Si      0.42780   0.70530   0.91330
Si         Si      0.13410   0.00540   0.81590
Si         Si      0.86590   0.49460   0.31590
Si         Si      0.63410   0.99460   0.68410
Si         Si      0.36590   0.50540   0.18410
Si         Si      0.86590   0.99460   0.18410
Si         Si      0.13410   0.50540   0.68410
Si         Si      0.36590   0.00540   0.31590
Si         Si      0.63410   0.49460   0.81590
Si         Si      0.83610   0.75440   0.68590
Si         Si      0.16390   0.74560   0.18590
Si         Si      0.33610   0.24560   0.81410
Si         Si      0.66390   0.25440   0.31410
Si         Si      0.16390   0.24560   0.31410
Si         Si      0.83610   0.25440   0.81410
Si         Si      0.66390   0.75440   0.18590
Si         Si      0.33610   0.74560   0.68590
Si         Si      0.09090   0.67160   0.59730
Si         Si      0.90910   0.82840   0.09730
Si         Si      0.59090   0.32840   0.90270
Si         Si      0.40910   0.17160   0.40270
Si         Si      0.90910   0.32840   0.40270
Si         Si      0.09090   0.17160   0.90270
Si         Si      0.40910   0.67160   0.09730
Si         Si      0.59090   0.82840   0.59730
Si         Si      0.22150   0.82360   0.84530
Si         Si      0.77850   0.67640   0.34530
Si         Si      0.72150   0.17640   0.65470
Si         Si      0.27850   0.32360   0.15470
Si         Si      0.77850   0.17640   0.15470
Si         Si      0.22150   0.32360   0.65470
Si         Si      0.27850   0.82360   0.34530
Si         Si      0.72150   0.67640   0.84530
Si         Si      0.85870   0.91250   0.78420
Si         Si      0.14130   0.58750   0.28420
Si         Si      0.35870   0.08750   0.71580
Si         Si      0.64130   0.41250   0.21580
Si         Si      0.14130   0.08750   0.21580
Si         Si      0.85870   0.41250   0.71580
Si         Si      0.64130   0.91250   0.28420
Si         Si      0.35870   0.58750   0.78420
O          O       0.95110   0.81740   0.00540
O          O       0.04890   0.68260   0.50540
O          O       0.45110   0.18260   0.49460
O          O       0.54890   0.31740   0.99460
O          O       0.04890   0.18260   0.99460
O          O       0.95110   0.31740   0.49460
O          O       0.54890   0.81740   0.50540
O          O       0.45110   0.68260   0.00540
O          O       0.83960   0.70990   0.90480
O          O       0.16040   0.79010   0.40480
O          O       0.33960   0.29010   0.59520
O          O       0.66040   0.20990   0.09520
O          O       0.16040   0.29010   0.09520
O          O       0.83960   0.20990   0.59520
O          O       0.66040   0.70990   0.40480
O          O       0.33960   0.79010   0.90480
O          O       0.07520   0.78320   0.87020
O          O       0.92480   0.71680   0.37020
O          O       0.57520   0.21680   0.62980
O          O       0.42480   0.28320   0.12980
O          O       0.92480   0.21680   0.12980
O          O       0.07520   0.28320   0.62980
O          O       0.42480   0.78320   0.37020
O          O       0.57520   0.71680   0.87020
O          O       0.84460   0.86920   0.87020
O          O       0.15540   0.63080   0.37020
O          O       0.34460   0.13080   0.62980
O          O       0.65540   0.36920   0.12980
O          O       0.15540   0.13080   0.12980
O          O       0.84460   0.36920   0.62980
O          O       0.65540   0.86920   0.37020
O          O       0.34460   0.63080   0.87020
O          O       0.21180   0.92380   0.84960
O          O       0.78820   0.57620   0.34960
O          O       0.71180   0.07620   0.65040
O          O       0.28820   0.42380   0.15040
O          O       0.78820   0.07620   0.15040
O          O       0.21180   0.42380   0.65040
O          O       0.28820   0.92380   0.34960
O          O       0.71180   0.57620   0.84960
O          O       0.25970   0.79610   0.75600
O          O       0.74030   0.70390   0.25600
O          O       0.75970   0.20390   0.74400
O          O       0.24030   0.29610   0.24400
O          O       0.74030   0.20390   0.24400
O          O       0.25970   0.29610   0.74400
O          O       0.24030   0.79610   0.25600
O          O       0.75970   0.70390   0.75600
O          O       0.21640   0.04230   0.74050
O          O       0.78360   0.45770   0.24050
O          O       0.71640   0.95770   0.75950
O          O       0.28360   0.54230   0.25950
O          O       0.78360   0.95770   0.25950
O          O       0.21640   0.54230   0.75950
O          O       0.28360   0.04230   0.24050
O          O       0.71640   0.45770   0.74050
O          O       0.12570   0.07500   0.88480
O          O       0.87430   0.42500   0.38480
O          O       0.62570   0.92500   0.61520
O          O       0.37430   0.57500   0.11520
O          O       0.87430   0.92500   0.11520
O          O       0.12570   0.57500   0.61520
O          O       0.37430   0.07500   0.38480
O          O       0.62570   0.42500   0.88480
O          O       0.98040   0.98100   0.78740
O          O       0.01960   0.51900   0.28740
O          O       0.48040   0.01900   0.71260
O          O       0.51960   0.48100   0.21260
O          O       0.01960   0.01900   0.21260
O          O       0.98040   0.48100   0.71260
O          O       0.51960   0.98100   0.28740
O          O       0.48040   0.51900   0.78740
O          O       0.89460   0.84160   0.71960
O          O       0.10540   0.65840   0.21960
O          O       0.39460   0.15840   0.78040
O          O       0.60540   0.34160   0.28040
O          O       0.10540   0.15840   0.28040
O          O       0.89460   0.34160   0.78040
O          O       0.60540   0.84160   0.21960
O          O       0.39460   0.65840   0.71960
O          O       0.96310   0.70000   0.65230
O          O       0.03690   0.80000   0.15230
O          O       0.46310   0.30000   0.84770
O          O       0.53690   0.20000   0.34770
O          O       0.03690   0.30000   0.34770
O          O       0.96310   0.20000   0.84770
O          O       0.53690   0.70000   0.15230
O          O       0.46310   0.80000   0.65230
O          O       0.22540   0.72740   0.61650
O          O       0.77460   0.77260   0.11650
O          O       0.72540   0.27260   0.88350
O          O       0.27460   0.22740   0.38350
O          O       0.77460   0.27260   0.38350
O          O       0.22540   0.22740   0.88350
O          O       0.27460   0.72740   0.11650
O          O       0.72540   0.77260   0.61650
