data_crystal

_cell_length_a    16.08902
_cell_length_b    16.08902
_cell_length_c    16.08902
_cell_angle_alpha 109.47122
_cell_angle_beta  109.47122
_cell_angle_gamma 109.47122

_space_group_name_Hall 'P 1'
_space_group_name_H-M_alt 'P 1'

loop_
_symmetry_equiv_pos_as_xyz
 'x,y,z'

loop_
_atom_site_label
_atom_site_type_symbol
_atom_site_fract_x
_atom_site_fract_y
_atom_site_fract_z
O          O       0.18560   0.66520   0.85080
O          O       0.33480   0.14920   0.81440
O          O       0.52040   0.18560   0.33480
O          O       0.18560   0.33480   0.52040
O          O       0.33480   0.52040   0.18560
O          O       0.66520   0.47960   0.81440
O          O       0.14920   0.81440   0.33480
O          O       0.66520   0.85080   0.18560
O          O       0.18560   0.85080   0.66520
O          O       0.33480   0.81440   0.14920
O          O       0.52040   0.33480   0.18560
O          O       0.18560   0.52040   0.33480
O          O       0.33480   0.18560   0.52040
O          O       0.66520   0.81440   0.47960
O          O       0.14920   0.33480   0.81440
O          O       0.66520   0.18560   0.85080
O          O       0.81440   0.33480   0.14920
O          O       0.47960   0.81440   0.66520
O          O       0.81440   0.66520   0.47960
O          O       0.85080   0.18560   0.66520
O          O       0.81440   0.14920   0.33480
O          O       0.47960   0.66520   0.81440
O          O       0.81440   0.47960   0.66520
O          O       0.85080   0.66520   0.18560
O          O       0.33660   0.84700   0.00000
O          O       0.33660   0.00000   0.84700
O          O       0.48960   0.15300   0.15300
O          O       0.33660   0.33660   0.48960
O          O       0.33660   0.48960   0.33660
O          O       0.48960   0.33660   0.33660
O          O       0.15300   0.66340   0.00000
O          O       0.84700   0.51040   0.84700
O          O       0.00000   0.66340   0.15300
O          O       0.15300   0.15300   0.48960
O          O       0.84700   0.00000   0.33660
O          O       0.00000   0.84700   0.33660
O          O       0.15300   0.00000   0.66340
O          O       0.84700   0.84700   0.51040
O          O       0.00000   0.15300   0.66340
O          O       0.15300   0.48960   0.15300
O          O       0.84700   0.33660   0.00000
O          O       0.00000   0.33660   0.84700
O          O       0.66340   0.15300   0.00000
O          O       0.66340   0.00000   0.15300
O          O       0.51040   0.84700   0.84700
O          O       0.66340   0.66340   0.51040
O          O       0.66340   0.51040   0.66340
O          O       0.51040   0.66340   0.66340
O          O       0.36580   0.73160   0.86580
O          O       0.50000   0.13420   0.86580
O          O       0.63420   0.13420   0.26840
O          O       0.36580   0.50000   0.63420
O          O       0.50000   0.63420   0.36580
O          O       0.63420   0.36580   0.50000
O          O       0.13420   0.50000   0.86580
O          O       0.73160   0.36580   0.86580
O          O       0.13420   0.63420   0.26840
O          O       0.13420   0.26840   0.63420
O          O       0.73160   0.86580   0.36580
O          O       0.13420   0.86580   0.50000
O          O       0.36580   0.86580   0.73160
O          O       0.50000   0.86580   0.13420
O          O       0.63420   0.26840   0.13420
O          O       0.36580   0.63420   0.50000
O          O       0.50000   0.36580   0.63420
O          O       0.63420   0.50000   0.36580
O          O       0.86580   0.50000   0.13420
O          O       0.26840   0.63420   0.13420
O          O       0.86580   0.36580   0.73160
O          O       0.86580   0.73160   0.36580
O          O       0.26840   0.13420   0.63420
O          O       0.86580   0.13420   0.50000
O          O       0.25420   0.81220   0.81220
O          O       0.44200   0.18780   0.00000
O          O       0.44200   0.00000   0.18780
O          O       0.25420   0.44200   0.44200
O          O       0.44200   0.44200   0.25420
O          O       0.44200   0.25420   0.44200
O          O       0.00000   0.55800   0.81220
O          O       0.81220   0.55800   1.00000
O          O       0.18780   0.74580   0.18780
O          O       0.00000   0.18780   0.44200
O          O       0.81220   0.81220   0.25420
O          O       0.18780   1.00000   0.44200
O          O       0.00000   0.81220   0.55800
O          O       0.81220   0.00000   0.55800
O          O       0.18780   0.18780   0.74580
O          O       0.00000   0.44200   0.18780
O          O       0.81220   0.25420   0.81220
O          O       0.18780   0.44200   0.00000
O          O       0.74580   0.18780   0.18780
O          O       0.55800   0.81220   0.00000
O          O       0.55800   0.00000   0.81220
O          O       0.74580   0.55800   0.55800
O          O       0.55800   0.55800   0.74580
O          O       0.55800   0.74580   0.55800
Si         Si      0.28570   0.76400   0.88230
Si         Si      0.40340   0.11770   0.88170
Si         Si      0.52170   0.11830   0.23600
Si         Si      0.28570   0.40340   0.52170
Si         Si      0.40340   0.52170   0.28570
Si         Si      0.52170   0.28570   0.40340
Si         Si      0.11830   0.59660   0.88230
Si         Si      0.76400   0.47830   0.88170
Si         Si      0.11770   0.71430   0.23600
Si         Si      0.11830   0.23600   0.52170
Si         Si      0.76400   0.88230   0.28570
Si         Si      0.11770   0.88170   0.40340
Si         Si      0.28570   0.88230   0.76400
Si         Si      0.40340   0.88170   0.11770
Si         Si      0.52170   0.23600   0.11830
Si         Si      0.28570   0.52170   0.40340
Si         Si      0.40340   0.28570   0.52170
Si         Si      0.52170   0.40340   0.28570
Si         Si      0.11830   0.88230   0.59660
Si         Si      0.76400   0.88170   0.47830
Si         Si      0.11770   0.23600   0.71430
Si         Si      0.11830   0.52170   0.23600
Si         Si      0.76400   0.28570   0.88230
Si         Si      0.11770   0.40340   0.88170
Si         Si      0.71430   0.23600   0.11770
Si         Si      0.59660   0.88230   0.11830
Si         Si      0.47830   0.88170   0.76400
Si         Si      0.71430   0.59660   0.47830
Si         Si      0.59660   0.47830   0.71430
Si         Si      0.47830   0.71430   0.59660
Si         Si      0.88170   0.40340   0.11770
Si         Si      0.23600   0.52170   0.11830
Si         Si      0.88230   0.28570   0.76400
Si         Si      0.88170   0.76400   0.47830
Si         Si      0.23600   0.11770   0.71430
Si         Si      0.88230   0.11830   0.59660
Si         Si      0.71430   0.11770   0.23600
Si         Si      0.59660   0.11830   0.88230
Si         Si      0.47830   0.76400   0.88170
Si         Si      0.71430   0.47830   0.59660
Si         Si      0.59660   0.71430   0.47830
Si         Si      0.47830   0.59660   0.71430
Si         Si      0.88170   0.11770   0.40340
Si         Si      0.23600   0.11830   0.52170
Si         Si      0.88230   0.76400   0.28570
Si         Si      0.88170   0.47830   0.76400
Si         Si      0.23600   0.71430   0.11770
Si         Si      0.88230   0.59660   0.11830
