data_crystal

_cell_length_a    7.61300
_cell_length_b    9.72879
_cell_length_c    9.72879
_cell_angle_alpha 82.87435
_cell_angle_beta  74.29984
_cell_angle_gamma 74.29984

_space_group_name_Hall 'P 1'
_space_group_name_H-M_alt 'P 1'

loop_
_symmetry_equiv_pos_as_xyz
 'x,y,z'

loop_
_atom_site_label
_atom_site_type_symbol
_atom_site_fract_x
_atom_site_fract_y
_atom_site_fract_z
O          O       0.27840   0.99320   0.30400
O          O       0.72160   0.69600   0.00680
O          O       0.72160   0.00680   0.69600
O          O       0.27840   0.30400   0.99320
O          O       0.28570   0.26400   0.26400
O          O       0.71430   0.73600   0.73600
O          O       0.25370   0.13840   0.52200
O          O       0.74630   0.47800   0.86160
O          O       0.74630   0.86160   0.47800
O          O       0.25370   0.52200   0.13840
O          O       0.57360   0.07120   0.32660
O          O       0.42640   0.67340   0.92880
O          O       0.42640   0.92880   0.67340
O          O       0.57360   0.32660   0.07120
O          O       0.94330   0.00150   0.27230
O          O       0.05670   0.72770   0.99850
O          O       0.05670   0.99850   0.72770
O          O       0.94330   0.27230   0.00150
O          O       0.76740   0.82880   0.20940
O          O       0.23260   0.79060   0.17120
O          O       0.23260   0.17120   0.79060
O          O       0.76740   0.20940   0.82880
O          O       0.20990   0.04930   0.04930
O          O       0.79010   0.95070   0.95070
Si         Si      0.34780   0.11670   0.35410
Si         Si      0.65220   0.64590   0.88330
Si         Si      0.65220   0.88330   0.64590
Si         Si      0.34780   0.35410   0.11670
Si         Si      0.75760   0.94080   0.32160
Si         Si      0.24240   0.67840   0.05920
Si         Si      0.24240   0.05920   0.67840
Si         Si      0.75760   0.32160   0.94080
Si         Si      0.16600   0.95880   0.19920
Si         Si      0.83400   0.80080   0.04120
Si         Si      0.83400   0.04120   0.80080
Si         Si      0.16600   0.19920   0.95880
