data_crystal

_cell_length_a    10.69764
_cell_length_b    10.69764
_cell_length_c    10.69764
_cell_angle_alpha 75.97115
_cell_angle_beta  75.97115
_cell_angle_gamma 75.97115

_space_group_name_Hall 'P 1'
_space_group_name_H-M_alt 'P 1'

loop_
_symmetry_equiv_pos_as_xyz
 'x,y,z'

loop_
_atom_site_label
_atom_site_type_symbol
_atom_site_fract_x
_atom_site_fract_y
_atom_site_fract_z
O          O       0.17260   0.17260   0.88610
O          O       0.88610   0.17260   0.17260
O          O       0.17260   0.88610   0.17260
O          O       0.82740   0.82740   0.11390
O          O       0.11390   0.82740   0.82740
O          O       0.82740   0.11390   0.82740
O          O       0.14440   0.41980   0.76490
O          O       0.76490   0.14440   0.41980
O          O       0.41980   0.76490   0.14440
O          O       0.76490   0.41980   0.14440
O          O       0.41980   0.14440   0.76490
O          O       0.14440   0.76490   0.41980
O          O       0.85560   0.58020   0.23510
O          O       0.23510   0.85560   0.58020
O          O       0.58020   0.23510   0.85560
O          O       0.23510   0.58020   0.85560
O          O       0.58020   0.85560   0.23510
O          O       0.85560   0.23510   0.58020
O          O       0.95860   0.34140   0.95860
O          O       0.95860   0.95860   0.34140
O          O       0.34140   0.95860   0.95860
O          O       0.04140   0.65860   0.04140
O          O       0.04140   0.04140   0.65860
O          O       0.65860   0.04140   0.04140
O          O       0.00000   0.26780   0.73220
O          O       0.73220   1.00000   0.26780
O          O       0.26780   0.73220   1.00000
O          O       0.73220   0.26780   0.00000
O          O       0.26780   1.00000   0.73220
O          O       0.00000   0.73220   0.26780
O          O       0.60080   0.26270   0.60080
O          O       0.60080   0.60080   0.26270
O          O       0.26270   0.60080   0.60080
O          O       0.39920   0.73730   0.39920
O          O       0.39920   0.39920   0.73730
O          O       0.73730   0.39920   0.39920
Si         Si      0.06880   0.30050   0.83560
Si         Si      0.83560   0.06880   0.30050
Si         Si      0.30050   0.83560   0.06880
Si         Si      0.83560   0.30050   0.06880
Si         Si      0.30050   0.06880   0.83560
Si         Si      0.06880   0.83560   0.30050
Si         Si      0.93120   0.69950   0.16440
Si         Si      0.16440   0.93120   0.69950
Si         Si      0.69950   0.16440   0.93120
Si         Si      0.16440   0.69950   0.93120
Si         Si      0.69950   0.93120   0.16440
Si         Si      0.93120   0.16440   0.69950
Si         Si      0.73970   0.26030   0.50000
Si         Si      0.50000   0.73970   0.26030
Si         Si      0.26030   0.50000   0.73970
Si         Si      0.50000   0.26030   0.73970
Si         Si      0.26030   0.73970   0.50000
Si         Si      0.73970   0.50000   0.26030
