data_crystal

_cell_length_a    12.28100
_cell_length_b    12.28100
_cell_length_c    15.63200
_cell_angle_alpha 90.00000
_cell_angle_beta  90.00000
_cell_angle_gamma 120.00000

_space_group_name_Hall 'P 1'
_space_group_name_H-M_alt 'P 1'

loop_
_symmetry_equiv_pos_as_xyz
 'x,y,z'

loop_
_atom_site_label
_atom_site_type_symbol
_atom_site_fract_x
_atom_site_fract_y
_atom_site_fract_z
Si         Si      0.67010   0.58750   0.82760
Si         Si      0.91740   0.32990   0.82760
Si         Si      0.41250   0.08260   0.82760
Si         Si      0.67010   0.58750   0.17240
Si         Si      0.91740   0.32990   0.17240
Si         Si      0.41250   0.08260   0.17240
Si         Si      0.91740   0.58750   0.82760
Si         Si      0.41250   0.32990   0.82760
Si         Si      0.67010   0.08260   0.82760
Si         Si      0.91740   0.58750   0.17240
Si         Si      0.41250   0.32990   0.17240
Si         Si      0.67010   0.08260   0.17240
Si         Si      0.74370   0.74120   0.65470
Si         Si      0.99750   0.25630   0.65470
Si         Si      0.25880   0.00250   0.65470
Si         Si      0.74370   0.74120   0.34530
Si         Si      0.99750   0.25630   0.34530
Si         Si      0.25880   0.00250   0.34530
Si         Si      0.99750   0.74120   0.65470
Si         Si      0.25880   0.25630   0.65470
Si         Si      0.74370   0.00250   0.65470
Si         Si      0.99750   0.74120   0.34530
Si         Si      0.25880   0.25630   0.34530
Si         Si      0.74370   0.00250   0.34530
Si         Si      0.58550   0.66320   0.50000
Si         Si      0.07770   0.41450   0.50000
Si         Si      0.33680   0.92230   0.50000
Si         Si      0.07770   0.66320   0.50000
Si         Si      0.33680   0.41450   0.50000
Si         Si      0.58550   0.92230   0.50000
Si         Si      0.74750   0.74410   0.00000
Si         Si      0.99660   0.25250   0.00000
Si         Si      0.25590   0.00340   0.00000
Si         Si      0.99660   0.74410   0.00000
Si         Si      0.25590   0.25250   0.00000
Si         Si      0.74750   0.00340   1.00000
O          O       0.68340   0.66040   0.91600
O          O       0.97700   0.31660   0.91600
O          O       0.33960   0.02300   0.91600
O          O       0.68340   0.66040   0.08400
O          O       0.97700   0.31660   0.08400
O          O       0.33960   0.02300   0.08400
O          O       0.97700   0.66040   0.91600
O          O       0.33960   0.31660   0.91600
O          O       0.68340   0.02300   0.91600
O          O       0.97700   0.66040   0.08400
O          O       0.33960   0.31660   0.08400
O          O       0.68340   0.02300   0.08400
O          O       0.76860   0.53720   0.82680
O          O       0.76860   0.23140   0.82680
O          O       0.46280   0.23140   0.82680
O          O       0.76860   0.53720   0.17320
O          O       0.76860   0.23140   0.17320
O          O       0.46280   0.23140   0.17320
O          O       0.69960   0.68260   0.74880
O          O       0.98300   0.30040   0.74880
O          O       0.31740   0.01700   0.74880
O          O       0.69960   0.68260   0.25120
O          O       0.98300   0.30040   0.25120
O          O       0.31740   0.01700   0.25120
O          O       0.98300   0.68260   0.74880
O          O       0.31740   0.30040   0.74880
O          O       0.69960   0.01700   0.74880
O          O       0.98300   0.68260   0.25120
O          O       0.31740   0.30040   0.25120
O          O       0.69960   0.01700   0.25120
O          O       0.52920   0.47080   0.81870
O          O       0.94160   0.47080   0.81870
O          O       0.52920   0.05840   0.81870
O          O       0.52920   0.47080   0.18130
O          O       0.94160   0.47080   0.18130
O          O       0.52920   0.05840   0.18130
O          O       0.74120   0.87060   0.64790
O          O       0.12940   0.25880   0.64790
O          O       0.12940   0.87060   0.64790
O          O       0.74120   0.87060   0.35210
O          O       0.12940   0.25880   0.35210
O          O       0.12940   0.87060   0.35210
O          O       0.88420   0.76840   0.63680
O          O       0.88420   0.11580   0.63680
O          O       0.23160   0.11580   0.63680
O          O       0.88420   0.76840   0.36320
O          O       0.88420   0.11580   0.36320
O          O       0.23160   0.11580   0.36320
O          O       0.64970   0.64380   0.58410
O          O       0.99410   0.35030   0.58410
O          O       0.35620   0.00590   0.58410
O          O       0.64970   0.64380   0.41590
O          O       0.99410   0.35030   0.41590
O          O       0.35620   0.00590   0.41590
O          O       0.99410   0.64380   0.58410
O          O       0.35620   0.35030   0.58410
O          O       0.64970   0.00590   0.58410
O          O       0.99410   0.64380   0.41590
O          O       0.35620   0.35030   0.41590
O          O       0.64970   0.00590   0.41590
O          O       0.60710   0.80350   0.50000
O          O       0.19640   0.39290   0.50000
O          O       0.19650   0.80360   0.50000
O          O       0.43730   0.56280   0.50000
O          O       0.12550   0.56270   0.50000
O          O       0.43720   0.87450   0.50000
O          O       0.72640   0.86320   1.00000
O          O       0.13680   0.27360   1.00000
O          O       0.13680   0.86320   0.00000
O          O       0.89570   0.79140   0.00000
O          O       0.89570   0.10430   0.00000
O          O       0.20860   0.10430   0.00000
