data_crystal

_cell_length_a    10.34000
_cell_length_b    12.60700
_cell_length_c    12.60700
_cell_angle_alpha 120.00000
_cell_angle_beta  90.00000
_cell_angle_gamma 90.00000

_space_group_name_Hall 'P 1'
_space_group_name_H-M_alt 'P 1'

loop_
_symmetry_equiv_pos_as_xyz
 'x,y,z'

loop_
_atom_site_label
_atom_site_type_symbol
_atom_site_fract_x
_atom_site_fract_y
_atom_site_fract_z
Si         Si      0.75000   0.58050   0.67050
Si         Si      0.75000   0.09000   0.41950
Si         Si      0.75000   0.32950   0.91000
Si         Si      0.25000   0.41950   0.32950
Si         Si      0.25000   0.91000   0.58050
Si         Si      0.25000   0.67050   0.09000
Si         Si      0.75000   0.09000   0.67050
Si         Si      0.75000   0.32950   0.41950
Si         Si      0.75000   0.58050   0.91000
Si         Si      0.25000   0.91000   0.32950
Si         Si      0.25000   0.67050   0.58050
Si         Si      0.25000   0.41950   0.09000
Si         Si      0.00000   0.75180   0.75180
Si         Si      0.00000   0.00000   0.24820
Si         Si      0.00000   0.24820   1.00000
Si         Si      0.50000   0.24820   0.24820
Si         Si      0.50000   0.00000   0.75180
Si         Si      0.50000   0.75180   0.00000
Si         Si      1.00000   0.00000   0.75180
Si         Si      0.00000   0.24820   0.24820
Si         Si      0.00000   0.75180   0.00000
Si         Si      0.50000   0.00000   0.24820
Si         Si      0.50000   0.75180   0.75180
Si         Si      0.50000   0.24820   1.00000
O          O       0.75000   0.52890   0.76440
O          O       0.75000   0.23550   0.47110
O          O       0.75000   0.23560   0.76450
O          O       0.25000   0.47110   0.23560
O          O       0.25000   0.76450   0.52890
O          O       0.25000   0.76440   0.23550
O          O       0.87710   0.66280   0.69320
O          O       0.87710   0.03040   0.33720
O          O       0.87710   0.30680   0.96960
O          O       0.37710   0.33720   0.30680
O          O       0.37710   0.96960   0.66280
O          O       0.37710   0.69320   0.03040
O          O       0.87710   0.03040   0.69320
O          O       0.87710   0.30680   0.33720
O          O       0.87710   0.66280   0.96960
O          O       0.37710   0.96960   0.30680
O          O       0.37710   0.69320   0.66280
O          O       0.37710   0.33720   0.03040
O          O       0.12290   0.33720   0.30680
O          O       0.12290   0.96960   0.66280
O          O       0.12290   0.69320   0.03040
O          O       0.62290   0.66280   0.69320
O          O       0.62290   0.03040   0.33720
O          O       0.62290   0.30680   0.96960
O          O       0.12290   0.96960   0.30680
O          O       0.12290   0.69320   0.66280
O          O       0.12290   0.33720   0.03040
O          O       0.62290   0.03040   0.69320
O          O       0.62290   0.30680   0.33720
O          O       0.62290   0.66280   0.96960
O          O       0.75000   0.46810   0.53180
O          O       0.75000   0.06370   0.53190
O          O       0.75000   0.46820   0.93630
O          O       0.25000   0.53190   0.46820
O          O       0.25000   0.93630   0.46810
O          O       0.25000   0.53180   0.06370
O          O       0.96740   0.88370   0.76740
O          O       0.96740   0.88370   0.11630
O          O       0.96740   0.23260   0.11630
O          O       0.46740   0.11630   0.23260
O          O       0.46740   0.11630   0.88370
O          O       0.46740   0.76740   0.88370
O          O       0.03260   0.11630   0.23260
O          O       0.03260   0.11630   0.88370
O          O       0.03260   0.76740   0.88370
O          O       0.53260   0.88370   0.76740
O          O       0.53260   0.88370   0.11630
O          O       0.53260   0.23260   0.11630
