data_crystal

_cell_length_a    7.16300
_cell_length_b    7.16300
_cell_length_c    20.87600
_cell_angle_alpha 90.00000
_cell_angle_beta  90.00000
_cell_angle_gamma 90.00000

_space_group_name_Hall 'P 1'
_space_group_name_H-M_alt 'P 1'

loop_
_symmetry_equiv_pos_as_xyz
 'x,y,z'

loop_
_atom_site_label
_atom_site_type_symbol
_atom_site_fract_x
_atom_site_fract_y
_atom_site_fract_z
Si         Si      0.28140   0.50000   0.07650
Si         Si      0.50000   0.28140   0.57650
Si         Si      0.71860   0.50000   0.07650
Si         Si      0.50000   0.71860   0.57650
Si         Si      0.71860   0.50000   0.92350
Si         Si      0.50000   0.71860   0.42350
Si         Si      0.28140   0.50000   0.92350
Si         Si      0.50000   0.28140   0.42350
Si         Si      0.00000   0.79440   0.12850
Si         Si      0.20560   0.00000   0.62850
Si         Si      0.00000   0.20560   0.12850
Si         Si      0.79440   0.00000   0.62850
Si         Si      0.00000   0.20560   0.87150
Si         Si      0.79440   0.00000   0.37150
Si         Si      0.00000   0.79440   0.87150
Si         Si      0.20560   0.00000   0.37150
Si         Si      0.00000   0.00000   0.75000
Si         Si      0.00000   0.00000   0.25000
O          O       0.25580   0.50000   0.00000
O          O       0.50000   0.25580   0.50000
O          O       0.74420   0.50000   0.00000
O          O       0.50000   0.74420   0.50000
O          O       0.18400   0.68330   0.10610
O          O       0.31670   0.18400   0.60610
O          O       0.81600   0.31670   0.10610
O          O       0.68330   0.81600   0.60610
O          O       0.81600   0.68330   0.10610
O          O       0.68330   0.18400   0.60610
O          O       0.18400   0.31670   0.10610
O          O       0.31670   0.81600   0.60610
O          O       0.81600   0.31670   0.89390
O          O       0.68330   0.81600   0.39390
O          O       0.18400   0.68330   0.89390
O          O       0.31670   0.18400   0.39390
O          O       0.18400   0.31670   0.89390
O          O       0.31670   0.81600   0.39390
O          O       0.81600   0.68330   0.89390
O          O       0.68330   0.18400   0.39390
O          O       0.50000   0.50000   0.09430
O          O       0.50000   0.50000   0.59430
O          O       0.50000   0.50000   0.90570
O          O       0.50000   0.50000   0.40570
O          O       0.00000   0.00000   0.09700
O          O       0.00000   0.00000   0.59700
O          O       0.00000   0.00000   0.90300
O          O       0.00000   0.00000   0.40300
O          O       0.00000   0.81660   0.20530
O          O       0.18340   0.00000   0.70530
O          O       0.00000   0.18340   0.20530
O          O       0.81660   0.00000   0.70530
O          O       0.00000   0.18340   0.79470
O          O       0.81660   0.00000   0.29470
O          O       0.00000   0.81660   0.79470
O          O       0.18340   0.00000   0.29470
