data_crystal

_cell_length_a    24.55500
_cell_length_b    24.55500
_cell_length_c    24.55500
_cell_angle_alpha 90.00000
_cell_angle_beta  90.00000
_cell_angle_gamma 90.00000

_space_group_name_Hall 'P 1'
_space_group_name_H-M_alt 'P 1'

loop_
_symmetry_equiv_pos_as_xyz
 'x,y,z'

loop_
_atom_site_label
_atom_site_type_symbol
_atom_site_fract_x
_atom_site_fract_y
_atom_site_fract_z
Na         Na      0.09960   0.09960   0.09960
Na         Na      0.89370   0.89447   0.10168
Na         Na      0.90040   0.09960   0.90040
Na         Na      0.09960   0.90040   0.90040
Na         Na      0.59960   0.59960   0.40040
Na         Na      0.40040   0.40040   0.40040
Na         Na      0.59960   0.40040   0.59960
Na         Na      0.40040   0.59960   0.59960
Na         Na      0.09960   0.59960   0.59960
Na         Na      0.90040   0.40040   0.59960
Na         Na      0.90040   0.59960   0.40040
Na         Na      0.09960   0.40040   0.40040
Na         Na      0.59960   0.09960   0.90040
Na         Na      0.40040   0.90040   0.90040
Na         Na      0.59960   0.90040   0.09960
Na         Na      0.40040   0.09960   0.09960
Na         Na      0.59960   0.09960   0.59960
Na         Na      0.40040   0.90040   0.59960
Na         Na      0.40040   0.09960   0.40040
Na         Na      0.59960   0.90040   0.40040
Na         Na      0.09960   0.59960   0.90040
Na         Na      0.90040   0.40040   0.90040
Na         Na      0.09960   0.40040   0.09960
Na         Na      0.90040   0.59960   0.09960
Na         Na      0.59960   0.59960   0.09960
Na         Na      0.40040   0.40040   0.09960
Na         Na      0.40040   0.59960   0.90040
Na         Na      0.59960   0.40040   0.90040
Na         Na      0.09960   0.09960   0.40040
Na         Na      0.90040   0.90040   0.40040
Na         Na      0.09960   0.90040   0.59960
Na         Na      0.90040   0.09960   0.59960
Na         Na      0.90040   0.90040   0.90040
Na         Na      0.09960   0.09960   0.90040
Na         Na      0.09960   0.90040   0.09960
Na         Na      0.90040   0.09960   0.09960
Na         Na      0.40040   0.40040   0.59960
Na         Na      0.59960   0.59960   0.59960
Na         Na      0.40040   0.59960   0.40040
Na         Na      0.59960   0.40040   0.40040
Na         Na      0.90040   0.40040   0.40040
Na         Na      0.09960   0.59960   0.40040
Na         Na      0.09960   0.40040   0.59960
Na         Na      0.90040   0.59960   0.59960
Na         Na      0.40040   0.90040   0.09960
Na         Na      0.59960   0.09960   0.09960
Na         Na      0.40040   0.09960   0.90040
Na         Na      0.59960   0.90040   0.90040
Na         Na      0.40040   0.90040   0.40040
Na         Na      0.59960   0.09960   0.40040
Na         Na      0.59960   0.90040   0.59960
Na         Na      0.40040   0.09960   0.59960
Na         Na      0.90040   0.40040   0.09960
Na         Na      0.09960   0.59960   0.09960
Na         Na      0.90040   0.59960   0.90040
Na         Na      0.09960   0.40040   0.90040
Na         Na      0.40040   0.40040   0.90040
Na         Na      0.59960   0.59960   0.90040
Na         Na      0.59960   0.40040   0.09960
Na         Na      0.40040   0.59960   0.09960
Na         Na      0.90040   0.90040   0.59960
Na         Na      0.09960   0.09960   0.59960
Na         Na      0.90040   0.09960   0.40040
Na         Na      0.09960   0.90040   0.40040
Na         Na      0.28350   0.50000   0.28890
Na         Na      0.28890   0.28350   0.50000
Na         Na      0.00000   0.71650   0.28890
Na         Na      0.78890   0.50000   0.71650
Na         Na      0.21650   0.71110   0.50000
Na         Na      0.71110   0.21650   0.00000
Na         Na      0.50000   0.78350   0.28890
Na         Na      0.71110   0.00000   0.28350
Na         Na      0.28890   0.00000   0.71650
Na         Na      0.71650   0.21110   0.50000
Na         Na      0.21650   0.50000   0.78890
Na         Na      0.78350   0.50000   0.21110
Na         Na      0.00000   0.28890   0.78350
Na         Na      0.78890   0.71650   0.00000
Na         Na      0.50000   0.28350   0.21110
Na         Na      0.50000   0.71650   0.78890
Na         Na      0.50000   0.28350   0.78890
Na         Na      0.28350   0.71110   0.00000
Na         Na      0.21650   0.00000   0.28890
Na         Na      0.78350   0.00000   0.71110
Na         Na      0.00000   0.21110   0.28350
Na         Na      0.00000   0.78890   0.71650
Na         Na      0.78890   0.78350   0.50000
Si         Si      0.00000   0.09316   0.18499
Si         Si      0.00000   0.90684   0.18499
Si         Si      0.00000   0.09316   0.81501
Si         Si      0.00323   0.88741   0.81909
Si         Si      0.18499   0.00000   0.09316
Si         Si      0.18499   0.00000   0.90684
Si         Si      0.81501   0.00000   0.09316
Si         Si      0.81501   0.00000   0.90684
Si         Si      0.09316   0.18499   0.00000
Si         Si      0.90684   0.18499   0.00000
Si         Si      0.09316   0.81501   0.00000
Si         Si      0.90684   0.81501   0.00000
Si         Si      0.59316   0.50000   0.31501
Si         Si      0.40684   0.50000   0.31501
Si         Si      0.59316   0.50000   0.68499
Si         Si      0.40684   0.50000   0.68499
Si         Si      0.50000   0.68499   0.40684
Si         Si      0.50000   0.68499   0.59316
Si         Si      0.50000   0.31501   0.40684
Si         Si      0.50000   0.31501   0.59316
Si         Si      0.68499   0.59316   0.50000
Si         Si      0.68499   0.40684   0.50000
Si         Si      0.31501   0.59316   0.50000
Si         Si      0.31501   0.40684   0.50000
Si         Si      0.00000   0.59316   0.68499
Si         Si      0.00000   0.40684   0.68499
Si         Si      0.00000   0.59316   0.31501
Si         Si      0.00000   0.40684   0.31501
Si         Si      0.18499   0.50000   0.59316
Si         Si      0.18499   0.50000   0.40684
Si         Si      0.81501   0.50000   0.59316
Si         Si      0.81501   0.50000   0.40684
Si         Si      0.09316   0.68499   0.50000
Si         Si      0.90684   0.68499   0.50000
Si         Si      0.09316   0.31501   0.50000
Si         Si      0.90684   0.31501   0.50000
Si         Si      0.59316   0.00000   0.81501
Si         Si      0.40684   0.00000   0.81501
Si         Si      0.59316   0.00000   0.18499
Si         Si      0.40684   0.00000   0.18499
Si         Si      0.50000   0.18499   0.90684
Si         Si      0.50000   0.18499   0.09316
Si         Si      0.50000   0.81501   0.90684
Si         Si      0.50000   0.81501   0.09316
Si         Si      0.68499   0.09316   0.00000
Si         Si      0.68499   0.90684   0.00000
Si         Si      0.31501   0.09316   0.00000
Si         Si      0.31501   0.90684   0.00000
Si         Si      0.50000   0.09316   0.68499
Si         Si      0.50000   0.90684   0.68499
Si         Si      0.50000   0.09316   0.31501
Si         Si      0.50000   0.90684   0.31501
Si         Si      0.68499   0.00000   0.59316
Si         Si      0.68499   0.00000   0.40684
Si         Si      0.31501   0.00000   0.59316
Si         Si      0.31501   0.00000   0.40684
Si         Si      0.59316   0.18499   0.50000
Si         Si      0.40684   0.18499   0.50000
Si         Si      0.59316   0.81501   0.50000
Si         Si      0.40684   0.81501   0.50000
Si         Si      0.09316   0.50000   0.81501
Si         Si      0.90684   0.50000   0.81501
Si         Si      0.09316   0.50000   0.18499
Si         Si      0.90684   0.50000   0.18499
Si         Si      0.00000   0.68499   0.90684
Si         Si      0.00000   0.68499   0.09316
Si         Si      0.00000   0.31501   0.90684
Si         Si      0.00000   0.31501   0.09316
Si         Si      0.18499   0.59316   0.00000
Si         Si      0.18499   0.40684   0.00000
Si         Si      0.81501   0.59316   0.00000
Si         Si      0.81501   0.40684   0.00000
Si         Si      0.50000   0.59316   0.18499
Si         Si      0.50000   0.40684   0.18499
Si         Si      0.50000   0.59316   0.81501
Si         Si      0.50000   0.40684   0.81501
Si         Si      0.68499   0.50000   0.09316
Si         Si      0.68499   0.50000   0.90684
Si         Si      0.31501   0.50000   0.09316
Si         Si      0.31501   0.50000   0.90684
Si         Si      0.59316   0.68499   0.00000
Si         Si      0.40684   0.68499   0.00000
Si         Si      0.59316   0.31501   0.00000
Si         Si      0.40684   0.31501   0.00000
Si         Si      0.09316   0.00000   0.31501
Si         Si      0.90684   0.00000   0.31501
Si         Si      0.09316   0.00000   0.68499
Si         Si      0.90684   0.00000   0.68499
Si         Si      0.00000   0.18499   0.40684
Si         Si      0.00000   0.18499   0.59316
Si         Si      0.00106   0.79737   0.39689
Si         Si      0.00000   0.81501   0.59316
Si         Si      0.18499   0.09316   0.50000
Si         Si      0.18499   0.90684   0.50000
Si         Si      0.81501   0.09316   0.50000
Si         Si      0.81501   0.90684   0.50000
Al         Al      0.00000   0.18715   0.09042
Al         Al      0.00000   0.81285   0.09042
Al         Al      0.00000   0.18715   0.90958
Al         Al      0.00000   0.81285   0.90958
Al         Al      0.09042   0.00000   0.18715
Al         Al      0.09042   0.00000   0.81285
Al         Al      0.90958   0.00000   0.18715
Al         Al      0.90958   0.00000   0.81285
Al         Al      0.18715   0.09042   0.00000
Al         Al      0.81285   0.09042   0.00000
Al         Al      0.18715   0.90958   0.00000
Al         Al      0.81285   0.90958   0.00000
Al         Al      0.68715   0.50000   0.40958
Al         Al      0.31285   0.50000   0.40958
Al         Al      0.68715   0.50000   0.59042
Al         Al      0.31285   0.50000   0.59042
Al         Al      0.50000   0.59042   0.31285
Al         Al      0.50000   0.59042   0.68715
Al         Al      0.50000   0.40958   0.31285
Al         Al      0.50000   0.40958   0.68715
Al         Al      0.59042   0.68715   0.50000
Al         Al      0.59042   0.31285   0.50000
Al         Al      0.40958   0.68715   0.50000
Al         Al      0.40958   0.31285   0.50000
Al         Al      0.00000   0.68715   0.59042
Al         Al      0.00000   0.31285   0.59042
Al         Al      0.00000   0.68715   0.40958
Al         Al      0.00000   0.31285   0.40958
Al         Al      0.09042   0.50000   0.68715
Al         Al      0.09042   0.50000   0.31285
Al         Al      0.90958   0.50000   0.68715
Al         Al      0.90958   0.50000   0.31285
Al         Al      0.18715   0.59042   0.50000
Al         Al      0.81285   0.59042   0.50000
Al         Al      0.18715   0.40958   0.50000
Al         Al      0.81285   0.40958   0.50000
Al         Al      0.68715   0.00000   0.90958
Al         Al      0.31285   0.00000   0.90958
Al         Al      0.68715   0.00000   0.09042
Al         Al      0.31285   0.00000   0.09042
Al         Al      0.50000   0.09042   0.81285
Al         Al      0.50000   0.09042   0.18715
Al         Al      0.50000   0.90958   0.81285
Al         Al      0.50000   0.90958   0.18715
Al         Al      0.59042   0.18715   0.00000
Al         Al      0.59042   0.81285   0.00000
Al         Al      0.40958   0.18715   0.00000
Al         Al      0.40958   0.81285   0.00000
Al         Al      0.50000   0.18715   0.59042
Al         Al      0.50000   0.81285   0.59042
Al         Al      0.50000   0.18715   0.40958
Al         Al      0.50000   0.81285   0.40958
Al         Al      0.59042   0.00000   0.68715
Al         Al      0.59042   0.00000   0.31285
Al         Al      0.40958   0.00000   0.68715
Al         Al      0.40958   0.00000   0.31285
Al         Al      0.68715   0.09042   0.50000
Al         Al      0.31285   0.09042   0.50000
Al         Al      0.68715   0.90958   0.50000
Al         Al      0.31285   0.90958   0.50000
Al         Al      0.18715   0.50000   0.90958
Al         Al      0.81285   0.50000   0.90958
Al         Al      0.18715   0.50000   0.09042
Al         Al      0.81285   0.50000   0.09042
Al         Al      0.00000   0.59042   0.81285
Al         Al      0.00000   0.59042   0.18715
Al         Al      0.00000   0.40958   0.81285
Al         Al      0.00000   0.40958   0.18715
Al         Al      0.09042   0.68715   0.00000
Al         Al      0.09042   0.31285   0.00000
Al         Al      0.90958   0.68715   0.00000
Al         Al      0.90958   0.31285   0.00000
Al         Al      0.50000   0.68715   0.09042
Al         Al      0.50000   0.31285   0.09042
Al         Al      0.50000   0.68715   0.90958
Al         Al      0.50000   0.31285   0.90958
Al         Al      0.59042   0.50000   0.18715
Al         Al      0.59042   0.50000   0.81285
Al         Al      0.40958   0.50000   0.18715
Al         Al      0.40958   0.50000   0.81285
Al         Al      0.68715   0.59042   0.00000
Al         Al      0.30454   0.57588   0.98013
Al         Al      0.68715   0.40958   0.00000
Al         Al      0.31285   0.40958   0.00000
Al         Al      0.18715   0.00000   0.40958
Al         Al      0.81285   0.00000   0.40958
Al         Al      0.18715   0.00000   0.59042
Al         Al      0.81285   0.00000   0.59042
Al         Al      0.00000   0.09042   0.31285
Al         Al      0.00000   0.09042   0.68715
Al         Al      0.00000   0.90958   0.31285
Al         Al      0.00000   0.90958   0.68715
Al         Al      0.09042   0.18715   0.50000
Al         Al      0.09042   0.81285   0.50000
Al         Al      0.90958   0.18715   0.50000
Al         Al      0.90958   0.81285   0.50000
O          O       0.00000   0.11367   0.24663
O          O       0.00000   0.88633   0.24663
O          O       0.00000   0.11367   0.75337
O          O       0.00000   0.88633   0.75337
O          O       0.24663   0.00000   0.11367
O          O       0.24663   0.00000   0.88633
O          O       0.75337   0.00000   0.11367
O          O       0.75337   0.00000   0.88633
O          O       0.11367   0.24663   0.00000
O          O       0.88633   0.24663   0.00000
O          O       0.11367   0.75337   0.00000
O          O       0.88633   0.75337   0.00000
O          O       0.61367   0.50000   0.25337
O          O       0.38633   0.50000   0.25337
O          O       0.61367   0.50000   0.74663
O          O       0.38633   0.50000   0.74663
O          O       0.50000   0.74663   0.38633
O          O       0.50000   0.74663   0.61367
O          O       0.50000   0.25337   0.38633
O          O       0.50000   0.25337   0.61367
O          O       0.74663   0.61367   0.50000
O          O       0.74663   0.38633   0.50000
O          O       0.25337   0.61367   0.50000
O          O       0.25337   0.38633   0.50000
O          O       0.00000   0.61367   0.74663
O          O       0.00000   0.38633   0.74663
O          O       0.00000   0.61367   0.25337
O          O       0.00000   0.38633   0.25337
O          O       0.24663   0.50000   0.61367
O          O       0.24663   0.50000   0.38633
O          O       0.75337   0.50000   0.61367
O          O       0.75337   0.50000   0.38633
O          O       0.11367   0.74663   0.50000
O          O       0.88633   0.74663   0.50000
O          O       0.11367   0.25337   0.50000
O          O       0.88633   0.25337   0.50000
O          O       0.61367   0.00000   0.75337
O          O       0.38633   0.00000   0.75337
O          O       0.61367   0.00000   0.24663
O          O       0.38633   0.00000   0.24663
O          O       0.50000   0.24663   0.88633
O          O       0.50000   0.24663   0.11367
O          O       0.50000   0.75337   0.88633
O          O       0.50000   0.75337   0.11367
O          O       0.74663   0.11367   0.00000
O          O       0.74663   0.88633   0.00000
O          O       0.25337   0.11367   0.00000
O          O       0.25337   0.88633   0.00000
O          O       0.50000   0.11367   0.74663
O          O       0.50000   0.88633   0.74663
O          O       0.50000   0.11367   0.25337
O          O       0.50000   0.88633   0.25337
O          O       0.74663   0.00000   0.61367
O          O       0.74663   0.00000   0.38633
O          O       0.25337   0.00000   0.61367
O          O       0.25337   0.00000   0.38633
O          O       0.61367   0.24663   0.50000
O          O       0.38633   0.24663   0.50000
O          O       0.61367   0.75337   0.50000
O          O       0.38633   0.75337   0.50000
O          O       0.11367   0.50000   0.75337
O          O       0.88633   0.50000   0.75337
O          O       0.11367   0.50000   0.24663
O          O       0.88633   0.50000   0.24663
O          O       0.00000   0.74663   0.88633
O          O       0.00000   0.74663   0.11367
O          O       0.00000   0.25337   0.88633
O          O       0.00000   0.25337   0.11367
O          O       0.24663   0.61367   0.00000
O          O       0.24663   0.38633   0.00000
O          O       0.75337   0.61367   0.00000
O          O       0.75337   0.38633   0.00000
O          O       0.50000   0.61367   0.24663
O          O       0.50000   0.38633   0.24663
O          O       0.50000   0.61367   0.75337
O          O       0.50000   0.38633   0.75337
O          O       0.74663   0.50000   0.11367
O          O       0.74663   0.50000   0.88633
O          O       0.25337   0.50000   0.11367
O          O       0.25337   0.50000   0.88633
O          O       0.61367   0.74663   0.00000
O          O       0.38633   0.74663   0.00000
O          O       0.61367   0.25337   0.00000
O          O       0.38633   0.25337   0.00000
O          O       0.11367   0.00000   0.25337
O          O       0.88633   0.00000   0.25337
O          O       0.11367   0.00000   0.74663
O          O       0.88633   0.00000   0.74663
O          O       0.00000   0.24663   0.38633
O          O       0.00000   0.24663   0.61367
O          O       0.00000   0.75337   0.38633
O          O       0.00000   0.75337   0.61367
O          O       0.24663   0.11367   0.50000
O          O       0.24663   0.88633   0.50000
O          O       0.75337   0.11367   0.50000
O          O       0.75337   0.88633   0.50000
O          O       0.00000   0.14459   0.14591
O          O       0.00000   0.85541   0.14591
O          O       0.00000   0.14459   0.85409
O          O       0.00000   0.85541   0.85409
O          O       0.14591   0.00000   0.14459
O          O       0.14591   0.00000   0.85541
O          O       0.85409   0.00000   0.14459
O          O       0.85409   0.00000   0.85541
O          O       0.14459   0.14591   0.00000
O          O       0.85541   0.14591   0.00000
O          O       0.14459   0.85409   0.00000
O          O       0.85541   0.85409   0.00000
O          O       0.64459   0.50000   0.35409
O          O       0.35541   0.50000   0.35409
O          O       0.64459   0.50000   0.64591
O          O       0.35541   0.50000   0.64591
O          O       0.50000   0.64591   0.35541
O          O       0.50000   0.64591   0.64459
O          O       0.50000   0.35409   0.35541
O          O       0.50000   0.35409   0.64459
O          O       0.64591   0.64459   0.50000
O          O       0.64591   0.35541   0.50000
O          O       0.35409   0.64459   0.50000
O          O       0.35409   0.35541   0.50000
O          O       0.00000   0.64459   0.64591
O          O       0.00000   0.35541   0.64591
O          O       0.00000   0.64459   0.35409
O          O       0.00000   0.35541   0.35409
O          O       0.14591   0.50000   0.64459
O          O       0.14591   0.50000   0.35541
O          O       0.85409   0.50000   0.64459
O          O       0.85409   0.50000   0.35541
O          O       0.14459   0.64591   0.50000
O          O       0.85541   0.64591   0.50000
O          O       0.14459   0.35409   0.50000
O          O       0.85541   0.35409   0.50000
O          O       0.64459   0.00000   0.85409
O          O       0.35541   0.00000   0.85409
O          O       0.64459   0.00000   0.14591
O          O       0.35541   0.00000   0.14591
O          O       0.50000   0.14591   0.85541
O          O       0.50000   0.14591   0.14459
O          O       0.50000   0.85409   0.85541
O          O       0.50000   0.85409   0.14459
O          O       0.64591   0.14459   0.00000
O          O       0.64591   0.85541   0.00000
O          O       0.35409   0.14459   0.00000
O          O       0.35409   0.85541   0.00000
O          O       0.50000   0.14459   0.64591
O          O       0.50000   0.85541   0.64591
O          O       0.50000   0.14459   0.35409
O          O       0.50000   0.85541   0.35409
O          O       0.64591   0.00000   0.64459
O          O       0.64591   0.00000   0.35541
O          O       0.35409   0.00000   0.64459
O          O       0.35409   0.00000   0.35541
O          O       0.64459   0.14591   0.50000
O          O       0.35541   0.14591   0.50000
O          O       0.64459   0.85409   0.50000
O          O       0.35541   0.85409   0.50000
O          O       0.14459   0.50000   0.85409
O          O       0.85541   0.50000   0.85409
O          O       0.14459   0.50000   0.14591
O          O       0.85541   0.50000   0.14591
O          O       0.00000   0.64591   0.85541
O          O       0.00000   0.64591   0.14459
O          O       0.00000   0.35409   0.85541
O          O       0.00000   0.35409   0.14459
O          O       0.14591   0.64459   0.00000
O          O       0.14591   0.35541   0.00000
O          O       0.85409   0.64459   0.00000
O          O       0.85409   0.35541   0.00000
O          O       0.50000   0.64459   0.14591
O          O       0.50000   0.35541   0.14591
O          O       0.50000   0.64459   0.85409
O          O       0.50000   0.35541   0.85409
O          O       0.64591   0.50000   0.14459
O          O       0.64591   0.50000   0.85541
O          O       0.35409   0.50000   0.14459
O          O       0.35409   0.50000   0.85541
O          O       0.64459   0.64591   0.00000
O          O       0.35541   0.64591   0.00000
O          O       0.64459   0.35409   0.00000
O          O       0.35541   0.35409   0.00000
O          O       0.14459   0.00000   0.35409
O          O       0.85541   0.00000   0.35409
O          O       0.14459   0.00000   0.64591
O          O       0.85541   0.00000   0.64591
O          O       0.00000   0.14591   0.35541
O          O       0.00000   0.14591   0.64459
O          O       0.00000   0.85409   0.35541
O          O       0.00000   0.85409   0.64459
O          O       0.14591   0.14459   0.50000
O          O       0.14591   0.85541   0.50000
O          O       0.85409   0.14459   0.50000
O          O       0.85409   0.85541   0.50000
O          O       0.05379   0.05865   0.17152
O          O       0.94621   0.94135   0.17152
O          O       0.94621   0.05865   0.82848
O          O       0.05379   0.94135   0.82848
O          O       0.17152   0.05379   0.05865
O          O       0.17152   0.94621   0.94135
O          O       0.82848   0.94621   0.05865
O          O       0.82848   0.05379   0.94135
O          O       0.05865   0.17152   0.05379
O          O       0.94135   0.17152   0.94621
O          O       0.05865   0.82848   0.94621
O          O       0.94135   0.82848   0.05379
O          O       0.55865   0.55379   0.32848
O          O       0.44135   0.44621   0.32848
O          O       0.55865   0.44621   0.67152
O          O       0.44135   0.55379   0.67152
O          O       0.55379   0.67152   0.44135
O          O       0.44621   0.67152   0.55865
O          O       0.44621   0.32848   0.44135
O          O       0.55379   0.32848   0.55865
O          O       0.67152   0.55865   0.44621
O          O       0.67152   0.44135   0.55379
O          O       0.32848   0.55865   0.55379
O          O       0.32848   0.44135   0.44621
O          O       0.05379   0.55865   0.67152
O          O       0.94621   0.44135   0.67152
O          O       0.94621   0.55865   0.32848
O          O       0.05379   0.44135   0.32848
O          O       0.17152   0.55379   0.55865
O          O       0.17152   0.44621   0.44135
O          O       0.82848   0.44621   0.55865
O          O       0.82848   0.55379   0.44135
O          O       0.05865   0.67152   0.55379
O          O       0.94135   0.67152   0.44621
O          O       0.05865   0.32848   0.44621
O          O       0.94135   0.32848   0.55379
O          O       0.55865   0.05379   0.82848
O          O       0.44135   0.94621   0.82848
O          O       0.55865   0.94621   0.17152
O          O       0.44135   0.05379   0.17152
O          O       0.55379   0.17152   0.94135
O          O       0.44621   0.17152   0.05865
O          O       0.44621   0.82848   0.94135
O          O       0.55379   0.82848   0.05865
O          O       0.67152   0.05865   0.94621
O          O       0.67152   0.94135   0.05379
O          O       0.32848   0.05865   0.05379
O          O       0.32848   0.94135   0.94621
O          O       0.55379   0.05865   0.67152
O          O       0.44621   0.94135   0.67152
O          O       0.44621   0.05865   0.32848
O          O       0.55379   0.94135   0.32848
O          O       0.67152   0.05379   0.55865
O          O       0.67152   0.94621   0.44135
O          O       0.32848   0.94621   0.55865
O          O       0.32848   0.05379   0.44135
O          O       0.55865   0.17152   0.55379
O          O       0.44135   0.17152   0.44621
O          O       0.55865   0.82848   0.44621
O          O       0.44135   0.82848   0.55379
O          O       0.05865   0.55379   0.82848
O          O       0.94135   0.44621   0.82848
O          O       0.05865   0.44621   0.17152
O          O       0.94135   0.55379   0.17152
O          O       0.05379   0.67152   0.94135
O          O       0.94621   0.67152   0.05865
O          O       0.94621   0.32848   0.94135
O          O       0.05379   0.32848   0.05865
O          O       0.17152   0.55865   0.94621
O          O       0.17152   0.44135   0.05379
O          O       0.82848   0.55865   0.05379
O          O       0.82848   0.44135   0.94621
O          O       0.55379   0.55865   0.17152
O          O       0.44621   0.44135   0.17152
O          O       0.44621   0.55865   0.82848
O          O       0.55379   0.44135   0.82848
O          O       0.67152   0.55379   0.05865
O          O       0.67152   0.44621   0.94135
O          O       0.32848   0.44621   0.05865
O          O       0.32848   0.55379   0.94135
O          O       0.55865   0.67152   0.05379
O          O       0.44135   0.67152   0.94621
O          O       0.55865   0.32848   0.94621
O          O       0.44135   0.32848   0.05379
O          O       0.05865   0.05379   0.32848
O          O       0.94135   0.94621   0.32848
O          O       0.05865   0.94621   0.67152
O          O       0.94135   0.05379   0.67152
O          O       0.05379   0.17152   0.44135
O          O       0.94621   0.17152   0.55865
O          O       0.94621   0.82848   0.44135
O          O       0.05379   0.82848   0.55865
O          O       0.17152   0.05865   0.44621
O          O       0.17152   0.94135   0.55379
O          O       0.82848   0.05865   0.55379
O          O       0.82848   0.94135   0.44621
O          O       0.94621   0.94135   0.82848
O          O       0.05379   0.05865   0.82848
O          O       0.05379   0.94135   0.17152
O          O       0.94621   0.05865   0.17152
O          O       0.82848   0.94621   0.94135
O          O       0.82848   0.05379   0.05865
O          O       0.17152   0.05379   0.94135
O          O       0.17152   0.94621   0.05865
O          O       0.94135   0.82848   0.94621
O          O       0.05865   0.82848   0.05379
O          O       0.94135   0.17152   0.05379
O          O       0.05865   0.17152   0.94621
O          O       0.44135   0.44621   0.67152
O          O       0.55865   0.55379   0.67152
O          O       0.44135   0.55379   0.32848
O          O       0.55865   0.44621   0.32848
O          O       0.44621   0.32848   0.55865
O          O       0.55379   0.32848   0.44135
O          O       0.55379   0.67152   0.55865
O          O       0.44621   0.67152   0.44135
O          O       0.32848   0.44135   0.55379
O          O       0.32848   0.55865   0.44621
O          O       0.67152   0.44135   0.44621
O          O       0.67152   0.55865   0.55379
O          O       0.94621   0.44135   0.32848
O          O       0.05379   0.55865   0.32848
O          O       0.05379   0.44135   0.67152
O          O       0.94621   0.55865   0.67152
O          O       0.82848   0.44621   0.44135
O          O       0.82848   0.55379   0.55865
O          O       0.17152   0.55379   0.44135
O          O       0.17152   0.44621   0.55865
O          O       0.94135   0.32848   0.44621
O          O       0.05865   0.32848   0.55379
O          O       0.94135   0.67152   0.55379
O          O       0.05865   0.67152   0.44621
O          O       0.44135   0.94621   0.17152
O          O       0.55865   0.05379   0.17152
O          O       0.44135   0.05379   0.82848
O          O       0.55865   0.94621   0.82848
O          O       0.44621   0.82848   0.05865
O          O       0.55379   0.82848   0.94135
O          O       0.55379   0.17152   0.05865
O          O       0.44621   0.17152   0.94135
O          O       0.32848   0.94135   0.05379
O          O       0.32848   0.05865   0.94621
O          O       0.67152   0.94135   0.94621
O          O       0.67152   0.05865   0.05379
O          O       0.44621   0.94135   0.32848
O          O       0.55379   0.05865   0.32848
O          O       0.55379   0.94135   0.67152
O          O       0.44621   0.05865   0.67152
O          O       0.32848   0.94621   0.44135
O          O       0.32848   0.05379   0.55865
O          O       0.67152   0.05379   0.44135
O          O       0.67152   0.94621   0.55865
O          O       0.44135   0.82848   0.44621
O          O       0.55865   0.82848   0.55379
O          O       0.44135   0.17152   0.55379
O          O       0.55865   0.17152   0.44621
O          O       0.94135   0.44621   0.17152
O          O       0.05865   0.55379   0.17152
O          O       0.94135   0.55379   0.82848
O          O       0.05865   0.44621   0.82848
O          O       0.94621   0.32848   0.05865
O          O       0.05379   0.32848   0.94135
O          O       0.05379   0.67152   0.05865
O          O       0.94621   0.67152   0.94135
O          O       0.82848   0.44135   0.05379
O          O       0.82848   0.55865   0.94621
O          O       0.17152   0.44135   0.94621
O          O       0.17152   0.55865   0.05379
O          O       0.44621   0.44135   0.82848
O          O       0.55379   0.55865   0.82848
O          O       0.55379   0.44135   0.17152
O          O       0.44621   0.55865   0.17152
O          O       0.32848   0.44621   0.94135
O          O       0.32848   0.55379   0.05865
O          O       0.67152   0.55379   0.94135
O          O       0.67152   0.44621   0.05865
O          O       0.44135   0.32848   0.94621
O          O       0.55865   0.32848   0.05379
O          O       0.44135   0.67152   0.05379
O          O       0.55865   0.67152   0.94621
O          O       0.94135   0.94621   0.67152
O          O       0.05865   0.05379   0.67152
O          O       0.94135   0.05379   0.32848
O          O       0.05865   0.94621   0.32848
O          O       0.94621   0.82848   0.55865
O          O       0.05379   0.82848   0.44135
O          O       0.05379   0.17152   0.55865
O          O       0.94621   0.17152   0.44135
O          O       0.82848   0.94135   0.55379
O          O       0.82848   0.05865   0.44621
O          O       0.17152   0.94135   0.44621
O          O       0.17152   0.05865   0.55379
Na         Na      0.21650   0.21110   0.00000
Na         Na      0.71709   0.36164   0.78057
Na         Na      0.59732   0.61471   0.25567
Na         Na      0.18603   0.30000   0.15484
Na         Na      0.89166   0.84135   0.74993
Na         Na      0.32219   0.85138   0.24058
Na         Na      0.35257   0.76871   0.92550
Na         Na      0.64510   0.24477   0.35193
Na         Na      0.82446   0.08383   0.32692
