data_crystal

_cell_length_a    11.91900
_cell_length_b    11.91900
_cell_length_c    11.91900
_cell_angle_alpha 90.00000
_cell_angle_beta  90.00000
_cell_angle_gamma 90.00000

_space_group_name_Hall 'P 1'
_space_group_name_H-M_alt 'P 1'

loop_
_symmetry_equiv_pos_as_xyz
 'x,y,z'

loop_
_atom_site_label
_atom_site_type_symbol
_atom_site_fract_x
_atom_site_fract_y
_atom_site_fract_z
Si         Si      0.00000   0.18230   0.36840
Si         Si      0.36840   0.00000   0.18230
Si         Si      0.18230   0.36840   0.00000
Si         Si      0.00000   0.18230   0.63160
Si         Si      0.36840   0.00000   0.81770
Si         Si      0.63160   0.00000   0.18230
Si         Si      0.81770   0.36840   0.00000
Si         Si      0.63160   0.00000   0.81770
Si         Si      0.18230   0.00000   0.36840
Si         Si      0.00000   0.36840   0.18230
Si         Si      0.36840   0.18230   0.00000
Si         Si      0.18230   0.00000   0.63160
Si         Si      0.00000   0.36840   0.81770
Si         Si      0.00000   0.63160   0.18230
Si         Si      0.36840   0.81770   0.00000
Si         Si      0.00000   0.63160   0.81770
Si         Si      0.00000   0.81770   0.63160
Si         Si      0.81770   0.63160   0.00000
Si         Si      0.00000   0.81770   0.36840
Si         Si      0.18230   0.63160   0.00000
Si         Si      0.81770   0.00000   0.63160
Si         Si      0.63160   0.81770   0.00000
Si         Si      0.81770   0.00000   0.36840
Si         Si      0.63160   0.18230   0.00000
O          O       0.00000   0.21220   0.50000
O          O       0.50000   0.00000   0.21220
O          O       0.21220   0.50000   0.00000
O          O       0.50000   0.00000   0.78780
O          O       0.78780   0.50000   0.00000
O          O       0.21220   0.00000   0.50000
O          O       0.00000   0.50000   0.21220
O          O       0.50000   0.21220   0.00000
O          O       0.00000   0.50000   0.78780
O          O       0.50000   0.78780   0.00000
O          O       0.00000   0.78780   0.50000
O          O       0.78780   0.00000   0.50000
O          O       0.11030   0.11030   0.33840
O          O       0.33840   0.11030   0.11030
O          O       0.11030   0.33840   0.11030
O          O       0.11030   0.11030   0.66160
O          O       0.33840   0.11030   0.88970
O          O       0.11030   0.33840   0.88970
O          O       0.88970   0.11030   0.33840
O          O       0.66160   0.11030   0.11030
O          O       0.88970   0.33840   0.11030
O          O       0.88970   0.11030   0.66160
O          O       0.66160   0.11030   0.88970
O          O       0.88970   0.33840   0.88970
O          O       0.11030   0.88970   0.33840
O          O       0.11030   0.66160   0.11030
O          O       0.33840   0.88970   0.11030
O          O       0.11030   0.88970   0.66160
O          O       0.11030   0.66160   0.88970
O          O       0.33840   0.88970   0.88970
O          O       0.88970   0.88970   0.66160
O          O       0.66160   0.88970   0.88970
O          O       0.88970   0.66160   0.88970
O          O       0.88970   0.88970   0.33840
O          O       0.66160   0.88970   0.11030
O          O       0.88970   0.66160   0.11030
O          O       0.00000   0.29670   0.29670
O          O       0.29670   0.00000   0.29670
O          O       0.29670   0.29670   0.00000
O          O       0.00000   0.29670   0.70330
O          O       0.29670   0.00000   0.70330
O          O       0.70330   0.00000   0.29670
O          O       0.70330   0.29670   0.00000
O          O       0.70330   0.00000   0.70330
O          O       0.00000   0.70330   0.29670
O          O       0.29670   0.70330   0.00000
O          O       0.00000   0.70330   0.70330
O          O       0.70330   0.70330   0.00000
