data_crystal

_cell_length_a    7.60100
_cell_length_b    31.16700
_cell_length_c    31.16700
_cell_angle_alpha 120.00000
_cell_angle_beta  90.00000
_cell_angle_gamma 90.00000

_space_group_name_Hall 'P 1'
_space_group_name_H-M_alt 'P 1'

loop_
_symmetry_equiv_pos_as_xyz
 'x,y,z'

loop_
_atom_site_label
_atom_site_type_symbol
_atom_site_fract_x
_atom_site_fract_y
_atom_site_fract_z
Si         Si      0.54810   0.94500   0.37400
Si         Si      0.54810   0.42900   0.05500
Si         Si      0.54810   0.62600   0.57100
Si         Si      0.04810   0.05500   0.62600
Si         Si      0.04810   0.57100   0.94500
Si         Si      0.04810   0.37400   0.42900
Si         Si      0.04810   0.57100   0.62600
Si         Si      0.04810   0.37400   0.94500
Si         Si      0.04810   0.05500   0.42900
Si         Si      0.54810   0.42900   0.37400
Si         Si      0.54810   0.62600   0.05500
Si         Si      0.54810   0.94500   0.57100
Si         Si      0.45190   0.05500   0.62600
Si         Si      0.45190   0.57100   0.94500
Si         Si      0.45190   0.37400   0.42900
Si         Si      0.95190   0.94500   0.37400
Si         Si      0.95190   0.42900   0.05500
Si         Si      0.95190   0.62600   0.57100
Si         Si      0.95190   0.42900   0.37400
Si         Si      0.95190   0.62600   0.05500
Si         Si      0.95190   0.94500   0.57100
Si         Si      0.45190   0.57100   0.62600
Si         Si      0.45190   0.37400   0.94500
Si         Si      0.45190   0.05500   0.42900
Si         Si      0.54750   0.84800   0.37470
Si         Si      0.54750   0.52670   0.15200
Si         Si      0.54750   0.62530   0.47330
Si         Si      0.04750   0.15200   0.62530
Si         Si      0.04750   0.47330   0.84800
Si         Si      0.04750   0.37470   0.52670
Si         Si      0.04750   0.47330   0.62530
Si         Si      0.04750   0.37470   0.84800
Si         Si      0.04750   0.15200   0.52670
Si         Si      0.54750   0.52670   0.37470
Si         Si      0.54750   0.62530   0.15200
Si         Si      0.54750   0.84800   0.47330
Si         Si      0.45250   0.15200   0.62530
Si         Si      0.45250   0.47330   0.84800
Si         Si      0.45250   0.37470   0.52670
Si         Si      0.95250   0.84800   0.37470
Si         Si      0.95250   0.52670   0.15200
Si         Si      0.95250   0.62530   0.47330
Si         Si      0.95250   0.52670   0.37470
Si         Si      0.95250   0.62530   0.15200
Si         Si      0.95250   0.84800   0.47330
Si         Si      0.45250   0.47330   0.62530
Si         Si      0.45250   0.37470   0.84800
Si         Si      0.45250   0.15200   0.52670
Si         Si      0.54770   0.94530   0.15230
Si         Si      0.54770   0.20700   0.05470
Si         Si      0.54770   0.84770   0.79300
Si         Si      0.04770   0.05470   0.84770
Si         Si      0.04770   0.79300   0.94530
Si         Si      0.04770   0.15230   0.20700
Si         Si      0.04770   0.79300   0.84770
Si         Si      0.04770   0.15230   0.94530
Si         Si      0.04770   0.05470   0.20700
Si         Si      0.54770   0.20700   0.15230
Si         Si      0.54770   0.84770   0.05470
Si         Si      0.54770   0.94530   0.79300
Si         Si      0.45230   0.05470   0.84770
Si         Si      0.45230   0.79300   0.94530
Si         Si      0.45230   0.15230   0.20700
Si         Si      0.95230   0.94530   0.15230
Si         Si      0.95230   0.20700   0.05470
Si         Si      0.95230   0.84770   0.79300
Si         Si      0.95230   0.20700   0.15230
Si         Si      0.95230   0.84770   0.05470
Si         Si      0.95230   0.94530   0.79300
Si         Si      0.45230   0.79300   0.84770
Si         Si      0.45230   0.15230   0.94530
Si         Si      0.45230   0.05470   0.20700
Si         Si      0.25000   0.80720   0.29450
Si         Si      0.25000   0.48730   0.19280
Si         Si      0.25000   0.70550   0.51270
Si         Si      0.75000   0.19280   0.70550
Si         Si      0.75000   0.51270   0.80720
Si         Si      0.75000   0.29450   0.48730
Si         Si      0.75000   0.51270   0.70550
Si         Si      0.75000   0.29450   0.80720
Si         Si      0.75000   0.19280   0.48730
Si         Si      0.25000   0.48730   0.29450
Si         Si      0.25000   0.70550   0.19280
Si         Si      0.25000   0.80720   0.51270
Si         Si      0.25000   0.90470   0.29410
Si         Si      0.25000   0.38940   0.09530
Si         Si      0.25000   0.70590   0.61060
Si         Si      0.75000   0.09530   0.70590
Si         Si      0.75000   0.61060   0.90470
Si         Si      0.75000   0.29410   0.38940
Si         Si      0.75000   0.61060   0.70590
Si         Si      0.75000   0.29410   0.90470
Si         Si      0.75000   0.09530   0.38940
Si         Si      0.25000   0.38940   0.29410
Si         Si      0.25000   0.70590   0.09530
Si         Si      0.25000   0.90470   0.61060
Si         Si      0.25000   0.90600   0.19250
Si         Si      0.25000   0.28650   0.09400
Si         Si      0.25000   0.80750   0.71350
Si         Si      0.75000   0.09400   0.80750
Si         Si      0.75000   0.71350   0.90600
Si         Si      0.75000   0.19250   0.28650
Si         Si      0.75000   0.71350   0.80750
Si         Si      0.75000   0.19250   0.90600
Si         Si      0.75000   0.09400   0.28650
Si         Si      0.25000   0.28650   0.19250
Si         Si      0.25000   0.80750   0.09400
Si         Si      0.25000   0.90600   0.71350
O          O       0.50000   0.00000   0.41770
O          O       0.50000   0.41770   1.00000
O          O       0.50000   0.58230   0.58230
O          O       1.00000   0.00000   0.58230
O          O       0.00000   0.58230   0.00000
O          O       0.00000   0.41770   0.41770
O          O       0.00000   0.58230   0.58230
O          O       0.00000   0.41770   1.00000
O          O       0.00000   0.00000   0.41770
O          O       0.50000   0.41770   0.41770
O          O       0.50000   0.58230   0.00000
O          O       0.50000   0.00000   0.58230
O          O       0.52150   0.90590   0.39290
O          O       0.52150   0.48700   0.09410
O          O       0.52150   0.60710   0.51300
O          O       0.02150   0.09410   0.60710
O          O       0.02150   0.51300   0.90590
O          O       0.02150   0.39290   0.48700
O          O       0.02150   0.51300   0.60710
O          O       0.02150   0.39290   0.90590
O          O       0.02150   0.09410   0.48700
O          O       0.52150   0.48700   0.39290
O          O       0.52150   0.60710   0.09410
O          O       0.52150   0.90590   0.51300
O          O       0.47850   0.09410   0.60710
O          O       0.47850   0.51300   0.90590
O          O       0.47850   0.39290   0.48700
O          O       0.97850   0.90590   0.39290
O          O       0.97850   0.48700   0.09410
O          O       0.97850   0.60710   0.51300
O          O       0.97850   0.48700   0.39290
O          O       0.97850   0.60710   0.09410
O          O       0.97850   0.90590   0.51300
O          O       0.47850   0.51300   0.60710
O          O       0.47850   0.39290   0.90590
O          O       0.47850   0.09410   0.48700
O          O       0.42290   0.93000   0.32690
O          O       0.42290   0.39690   0.07000
O          O       0.42290   0.67310   0.60310
O          O       0.92290   0.07000   0.67310
O          O       0.92290   0.60310   0.93000
O          O       0.92290   0.32690   0.39690
O          O       0.92290   0.60310   0.67310
O          O       0.92290   0.32690   0.93000
O          O       0.92290   0.07000   0.39690
O          O       0.42290   0.39690   0.32690
O          O       0.42290   0.67310   0.07000
O          O       0.42290   0.93000   0.60310
O          O       0.57710   0.07000   0.67310
O          O       0.57710   0.60310   0.93000
O          O       0.57710   0.32690   0.39690
O          O       0.07710   0.93000   0.32690
O          O       0.07710   0.39690   0.07000
O          O       0.07710   0.67310   0.60310
O          O       0.07710   0.39690   0.32690
O          O       0.07710   0.67310   0.07000
O          O       0.07710   0.93000   0.60310
O          O       0.57710   0.60310   0.67310
O          O       0.57710   0.32690   0.93000
O          O       0.57710   0.07000   0.39690
O          O       0.75000   0.94380   0.35780
O          O       0.75000   0.41400   0.05620
O          O       0.75000   0.64220   0.58600
O          O       0.25000   0.05620   0.64220
O          O       0.25000   0.58600   0.94380
O          O       0.25000   0.35780   0.41400
O          O       0.25000   0.58600   0.64220
O          O       0.25000   0.35780   0.94380
O          O       0.25000   0.05620   0.41400
O          O       0.75000   0.41400   0.35780
O          O       0.75000   0.64220   0.05620
O          O       0.75000   0.94380   0.58600
O          O       0.42300   0.81550   0.32760
O          O       0.42300   0.51210   0.18450
O          O       0.42300   0.67240   0.48790
O          O       0.92300   0.18450   0.67240
O          O       0.92300   0.48790   0.81550
O          O       0.92300   0.32760   0.51210
O          O       0.92300   0.48790   0.67240
O          O       0.92300   0.32760   0.81550
O          O       0.92300   0.18450   0.51210
O          O       0.42300   0.51210   0.32760
O          O       0.42300   0.67240   0.18450
O          O       0.42300   0.81550   0.48790
O          O       0.57700   0.18450   0.67240
O          O       0.57700   0.48790   0.81550
O          O       0.57700   0.32760   0.51210
O          O       0.07700   0.81550   0.32760
O          O       0.07700   0.51210   0.18450
O          O       0.07700   0.67240   0.48790
O          O       0.07700   0.51210   0.32760
O          O       0.07700   0.67240   0.18450
O          O       0.07700   0.81550   0.48790
O          O       0.57700   0.48790   0.67240
O          O       0.57700   0.32760   0.81550
O          O       0.57700   0.18450   0.51210
O          O       0.25000   0.75140   0.24860
O          O       0.25000   0.49720   0.24860
O          O       0.25000   0.75140   0.50280
O          O       0.75000   0.24860   0.75140
O          O       0.75000   0.50280   0.75140
O          O       0.75000   0.24860   0.49720
O          O       0.25000   0.84620   0.27500
O          O       0.25000   0.42880   0.15380
O          O       0.25000   0.72500   0.57120
O          O       0.75000   0.15380   0.72500
O          O       0.75000   0.57120   0.84620
O          O       0.75000   0.27500   0.42880
O          O       0.75000   0.57120   0.72500
O          O       0.75000   0.27500   0.84620
O          O       0.75000   0.15380   0.42880
O          O       0.25000   0.42880   0.27500
O          O       0.25000   0.72500   0.15380
O          O       0.25000   0.84620   0.57120
O          O       0.75000   0.83290   0.35950
O          O       0.75000   0.52660   0.16710
O          O       0.75000   0.64050   0.47340
O          O       0.25000   0.16710   0.64050
O          O       0.25000   0.47340   0.83290
O          O       0.25000   0.35950   0.52660
O          O       0.25000   0.47340   0.64050
O          O       0.25000   0.35950   0.83290
O          O       0.25000   0.16710   0.52660
O          O       0.75000   0.52660   0.35950
O          O       0.75000   0.64050   0.16710
O          O       0.75000   0.83290   0.47340
O          O       0.49550   0.83790   0.41890
O          O       0.49550   0.58100   0.16210
O          O       0.49550   0.58110   0.41900
O          O       0.99550   0.16210   0.58110
O          O       0.99550   0.41900   0.83790
O          O       0.99550   0.41890   0.58100
O          O       0.50450   0.16210   0.58110
O          O       0.50450   0.41900   0.83790
O          O       0.50450   0.41890   0.58100
O          O       0.00450   0.83790   0.41890
O          O       0.00450   0.58100   0.16210
O          O       0.00450   0.58110   0.41900
O          O       0.50000   0.00000   0.16260
O          O       0.50000   0.16260   0.00000
O          O       0.50000   0.83740   0.83740
O          O       0.00000   0.00000   0.83740
O          O       0.00000   0.83740   1.00000
O          O       0.00000   0.16260   0.16260
O          O       0.00000   0.83740   0.83740
O          O       0.00000   0.16260   0.00000
O          O       0.00000   0.00000   0.16260
O          O       0.50000   0.16260   0.16260
O          O       0.50000   0.83740   1.00000
O          O       0.50000   0.00000   0.83740
O          O       0.75000   0.94400   0.16690
O          O       0.75000   0.22290   0.05600
O          O       0.75000   0.83310   0.77710
O          O       0.25000   0.05600   0.83310
O          O       0.25000   0.77710   0.94400
O          O       0.25000   0.16690   0.22290
O          O       0.25000   0.77710   0.83310
O          O       0.25000   0.16690   0.94400
O          O       0.25000   0.05600   0.22290
O          O       0.75000   0.22290   0.16690
O          O       0.75000   0.83310   0.05600
O          O       0.75000   0.94400   0.77710
O          O       0.51880   0.90550   0.09460
O          O       0.51880   0.18910   0.09450
O          O       0.51880   0.90540   0.81090
O          O       0.01880   0.09450   0.90540
O          O       0.01880   0.81090   0.90550
O          O       0.01880   0.09460   0.18910
O          O       0.48120   0.09450   0.90540
O          O       0.48120   0.81090   0.90550
O          O       0.48120   0.09460   0.18910
O          O       0.98120   0.90550   0.09460
O          O       0.98120   0.18910   0.09450
O          O       0.98120   0.90540   0.81090
O          O       0.42300   0.93160   0.18540
O          O       0.42300   0.25380   0.06840
O          O       0.42300   0.81460   0.74620
O          O       0.92300   0.06840   0.81460
O          O       0.92300   0.74620   0.93160
O          O       0.92300   0.18540   0.25380
O          O       0.92300   0.74620   0.81460
O          O       0.92300   0.18540   0.93160
O          O       0.92300   0.06840   0.25380
O          O       0.42300   0.25380   0.18540
O          O       0.42300   0.81460   0.06840
O          O       0.42300   0.93160   0.74620
O          O       0.57700   0.06840   0.81460
O          O       0.57700   0.74620   0.93160
O          O       0.57700   0.18540   0.25380
O          O       0.07700   0.93160   0.18540
O          O       0.07700   0.25380   0.06840
O          O       0.07700   0.81460   0.74620
O          O       0.07700   0.25380   0.18540
O          O       0.07700   0.81460   0.06840
O          O       0.07700   0.93160   0.74620
O          O       0.57700   0.74620   0.81460
O          O       0.57700   0.18540   0.93160
O          O       0.57700   0.06840   0.25380
O          O       0.25000   0.91360   0.24750
O          O       0.25000   0.33390   0.08640
O          O       0.25000   0.75250   0.66610
O          O       0.75000   0.08640   0.75250
O          O       0.75000   0.66610   0.91360
O          O       0.75000   0.24750   0.33390
O          O       0.75000   0.66610   0.75250
O          O       0.75000   0.24750   0.91360
O          O       0.75000   0.08640   0.33390
O          O       0.25000   0.33390   0.24750
O          O       0.25000   0.75250   0.08640
O          O       0.25000   0.91360   0.66610
O          O       0.25000   0.84770   0.15230
O          O       0.25000   0.30460   0.15230
O          O       0.25000   0.84770   0.69540
O          O       0.75000   0.15230   0.84770
O          O       0.75000   0.69540   0.84770
O          O       0.75000   0.15230   0.30460
