data_crystal

_cell_length_a    9.25000
_cell_length_b    9.25000
_cell_length_c    10.08300
_cell_angle_alpha 90.00000
_cell_angle_beta  90.00000
_cell_angle_gamma 90.00000

_space_group_name_Hall 'P 1'
_space_group_name_H-M_alt 'P 1'

loop_
_symmetry_equiv_pos_as_xyz
 'x,y,z'

loop_
_atom_site_label
_atom_site_type_symbol
_atom_site_fract_x
_atom_site_fract_y
_atom_site_fract_z
Si         Si      0.40440   0.42540   0.14800
Si         Si      0.59560   0.57460   0.64800
Si         Si      0.07460   0.90440   0.39800
Si         Si      0.92540   0.09560   0.89800
Si         Si      0.09560   0.92540   0.10200
Si         Si      0.90440   0.07460   0.60200
Si         Si      0.42540   0.40440   0.85200
Si         Si      0.57460   0.59560   0.35200
Si         Si      0.38790   0.08690   0.12720
Si         Si      0.61210   0.91310   0.62720
Si         Si      0.41310   0.88790   0.37720
Si         Si      0.58690   0.11210   0.87720
Si         Si      0.11210   0.58690   0.12280
Si         Si      0.88790   0.41310   0.62280
Si         Si      0.08690   0.38790   0.87280
Si         Si      0.91310   0.61210   0.37280
O          O       0.26220   0.52080   0.17640
O          O       0.73780   0.47920   0.67640
O          O       0.97920   0.76220   0.42640
O          O       0.02080   0.23780   0.92640
O          O       0.23780   0.02080   0.07360
O          O       0.76220   0.97920   0.57360
O          O       0.52080   0.26220   0.82360
O          O       0.47920   0.73780   0.32360
O          O       0.46000   0.46000   0.00000
O          O       0.54000   0.54000   0.50000
O          O       0.04000   0.96000   0.25000
O          O       0.96000   0.04000   0.75000
O          O       0.36670   0.25610   0.15900
O          O       0.63330   0.74390   0.65900
O          O       0.24390   0.86670   0.40900
O          O       0.75610   0.13330   0.90900
O          O       0.13330   0.75610   0.09100
O          O       0.86670   0.24390   0.59100
O          O       0.25610   0.36670   0.84100
O          O       0.74390   0.63330   0.34100
O          O       0.53100   0.46900   0.25000
O          O       0.46900   0.53100   0.75000
O          O       0.03100   0.03100   0.50000
O          O       0.96900   0.96900   0.00000
O          O       0.43460   0.00720   0.26260
O          O       0.56540   0.99280   0.76260
O          O       0.49280   0.93460   0.51260
O          O       0.50720   0.06540   0.01260
O          O       0.06540   0.50720   0.98740
O          O       0.93460   0.49280   0.48740
O          O       0.00720   0.43460   0.73740
O          O       0.99280   0.56540   0.23740
