data_crystal

_cell_length_a    7.56700
_cell_length_b    18.12600
_cell_length_c    18.12600
_cell_angle_alpha 120.00000
_cell_angle_beta  90.00000
_cell_angle_gamma 90.00000

_space_group_name_Hall 'P 1'
_space_group_name_H-M_alt 'P 1'

loop_
_symmetry_equiv_pos_as_xyz
 'x,y,z'

loop_
_atom_site_label
_atom_site_type_symbol
_atom_site_fract_x
_atom_site_fract_y
_atom_site_fract_z
Si         Si      0.79700   0.83520   0.33340
Si         Si      0.79700   0.49820   0.16480
Si         Si      0.79700   0.66660   0.50180
Si         Si      0.79700   0.16480   0.66660
Si         Si      0.79700   0.50180   0.83520
Si         Si      0.79700   0.33340   0.49820
Si         Si      0.79700   0.49820   0.33340
Si         Si      0.79700   0.66660   0.16480
Si         Si      0.79700   0.83520   0.50180
Si         Si      0.79700   0.50180   0.66660
Si         Si      0.79700   0.33340   0.83520
Si         Si      0.79700   0.16480   0.49820
Si         Si      0.20300   0.16480   0.66660
Si         Si      0.20300   0.50180   0.83520
Si         Si      0.20300   0.33340   0.49820
Si         Si      0.20300   0.83520   0.33340
Si         Si      0.20300   0.49820   0.16480
Si         Si      0.20300   0.66660   0.50180
Si         Si      0.20300   0.50180   0.66660
Si         Si      0.20300   0.33340   0.83520
Si         Si      0.20300   0.16480   0.49820
Si         Si      0.20300   0.49820   0.33340
Si         Si      0.20300   0.66660   0.16480
Si         Si      0.20300   0.83520   0.50180
Si         Si      0.50000   0.90410   0.26350
Si         Si      0.50000   0.35940   0.09590
Si         Si      0.50000   0.73650   0.64060
Si         Si      0.50000   0.09590   0.73650
Si         Si      0.50000   0.64060   0.90410
Si         Si      0.50000   0.26350   0.35940
Si         Si      0.50000   0.35940   0.26350
Si         Si      0.50000   0.73650   0.09590
Si         Si      0.50000   0.90410   0.64060
Si         Si      0.50000   0.64060   0.73650
Si         Si      0.50000   0.26350   0.90410
Si         Si      0.50000   0.09590   0.35940
O          O       0.77690   0.73550   0.26440
O          O       0.77690   0.52890   0.26450
O          O       0.77690   0.73560   0.47110
O          O       0.77690   0.26450   0.73560
O          O       0.77690   0.47110   0.73550
O          O       0.77690   0.26440   0.52890
O          O       0.22310   0.26450   0.73560
O          O       0.22310   0.47110   0.73550
O          O       0.22310   0.26440   0.52890
O          O       0.22310   0.73550   0.26440
O          O       0.22310   0.52890   0.26450
O          O       0.22310   0.73560   0.47110
O          O       0.67370   0.89010   0.30630
O          O       0.67370   0.41620   0.10990
O          O       0.67370   0.69370   0.58380
O          O       0.67370   0.10990   0.69370
O          O       0.67370   0.58380   0.89010
O          O       0.67370   0.30630   0.41620
O          O       0.67370   0.41620   0.30630
O          O       0.67370   0.69370   0.10990
O          O       0.67370   0.89010   0.58380
O          O       0.67370   0.58380   0.69370
O          O       0.67370   0.30630   0.89010
O          O       0.67370   0.10990   0.41620
O          O       0.32630   0.10990   0.69370
O          O       0.32630   0.58380   0.89010
O          O       0.32630   0.30630   0.41620
O          O       0.32630   0.89010   0.30630
O          O       0.32630   0.41620   0.10990
O          O       0.32630   0.69370   0.58380
O          O       0.32630   0.58380   0.69370
O          O       0.32630   0.30630   0.89010
O          O       0.32630   0.10990   0.41620
O          O       0.32630   0.41620   0.30630
O          O       0.32630   0.69370   0.10990
O          O       0.32630   0.89010   0.58380
O          O       0.73800   0.85160   0.42580
O          O       0.73800   0.57420   0.14840
O          O       0.73800   0.57420   0.42580
O          O       0.73800   0.14840   0.57420
O          O       0.73800   0.42580   0.85160
O          O       0.73800   0.42580   0.57420
O          O       0.26200   0.14840   0.57420
O          O       0.26200   0.42580   0.85160
O          O       0.26200   0.42580   0.57420
O          O       0.26200   0.85160   0.42580
O          O       0.26200   0.57420   0.14840
O          O       0.26200   0.57420   0.42580
O          O       0.00000   0.86350   0.33710
O          O       1.00000   0.47360   0.13650
O          O       0.00000   0.66290   0.52640
O          O       0.00000   0.13650   0.66290
O          O       0.00000   0.52640   0.86350
O          O       1.00000   0.33710   0.47360
O          O       0.00000   0.47360   0.33710
O          O       0.00000   0.66290   0.13650
O          O       0.00000   0.86350   0.52640
O          O       1.00000   0.52640   0.66290
O          O       1.00000   0.33710   0.86350
O          O       1.00000   0.13650   0.47360
O          O       0.50000   0.00000   0.27970
O          O       0.50000   0.27970   0.00000
O          O       0.50000   0.72030   0.72030
O          O       0.50000   0.00000   0.72030
O          O       0.50000   0.72030   0.00000
O          O       0.50000   0.27970   0.27970
O          O       0.50000   0.83720   0.16280
O          O       0.50000   0.32560   0.16280
O          O       0.50000   0.83720   0.67440
O          O       0.50000   0.16280   0.83720
O          O       0.50000   0.67440   0.83720
O          O       0.50000   0.16280   0.32560
