data_crystal

_cell_length_a    12.39200
_cell_length_b    12.39200
_cell_length_c    30.46900
_cell_angle_alpha 90.00000
_cell_angle_beta  90.00000
_cell_angle_gamma 120.00000

_space_group_name_Hall 'P 1'
_space_group_name_H-M_alt 'P 1'

loop_
_symmetry_equiv_pos_as_xyz
 'x,y,z'

loop_
_atom_site_label
_atom_site_type_symbol
_atom_site_fract_x
_atom_site_fract_y
_atom_site_fract_z
Si         Si      0.08440   0.66810   0.91310
Si         Si      0.58370   0.91560   0.91310
Si         Si      0.33190   0.41630   0.91310
Si         Si      0.91560   0.33190   0.41310
Si         Si      0.41630   0.08440   0.41310
Si         Si      0.66810   0.58370   0.41310
Si         Si      0.58370   0.66810   0.91310
Si         Si      0.33190   0.91560   0.91310
Si         Si      0.08440   0.41630   0.91310
Si         Si      0.41630   0.33190   0.41310
Si         Si      0.66810   0.08440   0.41310
Si         Si      0.91560   0.58370   0.41310
Si         Si      0.91560   0.33190   0.08690
Si         Si      0.41630   0.08440   0.08690
Si         Si      0.66810   0.58370   0.08690
Si         Si      0.08440   0.66810   0.58690
Si         Si      0.58370   0.91560   0.58690
Si         Si      0.33190   0.41630   0.58690
Si         Si      0.41630   0.33190   0.08690
Si         Si      0.66810   0.08440   0.08690
Si         Si      0.91560   0.58370   0.08690
Si         Si      0.58370   0.66810   0.58690
Si         Si      0.33190   0.91560   0.58690
Si         Si      0.08440   0.41630   0.58690
Si         Si      0.41240   0.07710   0.82820
Si         Si      0.66470   0.58760   0.82820
Si         Si      0.92290   0.33530   0.82820
Si         Si      0.58760   0.92290   0.32820
Si         Si      0.33530   0.41240   0.32820
Si         Si      0.07710   0.66470   0.32820
Si         Si      0.66470   0.07710   0.82820
Si         Si      0.92290   0.58760   0.82820
Si         Si      0.41240   0.33530   0.82820
Si         Si      0.33530   0.92290   0.32820
Si         Si      0.07710   0.41240   0.32820
Si         Si      0.58760   0.66470   0.32820
Si         Si      0.58760   0.92290   0.17180
Si         Si      0.33530   0.41240   0.17180
Si         Si      0.07710   0.66470   0.17180
Si         Si      0.41240   0.07710   0.67180
Si         Si      0.66470   0.58760   0.67180
Si         Si      0.92290   0.33530   0.67180
Si         Si      0.33530   0.92290   0.17180
Si         Si      0.07710   0.41240   0.17180
Si         Si      0.58760   0.66470   0.17180
Si         Si      0.66470   0.07710   0.67180
Si         Si      0.92290   0.58760   0.67180
Si         Si      0.41240   0.33530   0.67180
Si         Si      0.08370   0.67010   0.75000
Si         Si      0.58640   0.91630   0.75000
Si         Si      0.32990   0.41360   0.75000
Si         Si      0.91630   0.32990   0.25000
Si         Si      0.41360   0.08370   0.25000
Si         Si      0.67010   0.58640   0.25000
Si         Si      0.58640   0.67010   0.75000
Si         Si      0.32990   0.91630   0.75000
Si         Si      0.08370   0.41360   0.75000
Si         Si      0.41360   0.32990   0.25000
Si         Si      0.67010   0.08370   0.25000
Si         Si      0.91630   0.58640   0.25000
Si         Si      0.75060   0.75060   0.00000
Si         Si      1.00000   0.24940   0.00000
Si         Si      0.24940   0.00000   0.00000
Si         Si      0.24940   0.24940   0.50000
Si         Si      0.00000   0.75060   0.50000
Si         Si      0.75060   0.00000   0.50000
Si         Si      0.00000   0.75060   0.00000
Si         Si      0.24940   0.24940   0.00000
Si         Si      0.75060   0.00000   0.00000
Si         Si      1.00000   0.24940   0.50000
Si         Si      0.75060   0.75060   0.50000
Si         Si      0.24940   0.00000   0.50000
O          O       0.88370   0.76740   0.98640
O          O       0.88370   0.11630   0.98640
O          O       0.23260   0.11630   0.98640
O          O       0.11630   0.23260   0.48640
O          O       0.11630   0.88370   0.48640
O          O       0.76740   0.88370   0.48640
O          O       0.11630   0.23260   0.01360
O          O       0.11630   0.88370   0.01360
O          O       0.76740   0.88370   0.01360
O          O       0.88370   0.76740   0.51360
O          O       0.88370   0.11630   0.51360
O          O       0.23260   0.11630   0.51360
O          O       0.97550   0.62810   0.87730
O          O       0.65260   0.02450   0.87730
O          O       0.37190   0.34740   0.87730
O          O       0.02450   0.37190   0.37730
O          O       0.34740   0.97550   0.37730
O          O       0.62810   0.65260   0.37730
O          O       0.65260   0.62810   0.87730
O          O       0.37190   0.02450   0.87730
O          O       0.97550   0.34740   0.87730
O          O       0.34740   0.37190   0.37730
O          O       0.62810   0.97550   0.37730
O          O       0.02450   0.65260   0.37730
O          O       0.02450   0.37190   0.12270
O          O       0.34740   0.97550   0.12270
O          O       0.62810   0.65260   0.12270
O          O       0.97550   0.62810   0.62270
O          O       0.65260   0.02450   0.62270
O          O       0.37190   0.34740   0.62270
O          O       0.34740   0.37190   0.12270
O          O       0.62810   0.97550   0.12270
O          O       0.02450   0.65260   0.12270
O          O       0.65260   0.62810   0.62270
O          O       0.37190   0.02450   0.62270
O          O       0.97550   0.34740   0.62270
O          O       0.11680   0.55840   0.91910
O          O       0.44160   0.88320   0.91910
O          O       0.44160   0.55840   0.91910
O          O       0.88320   0.44160   0.41910
O          O       0.55840   0.11680   0.41910
O          O       0.55840   0.44160   0.41910
O          O       0.88320   0.44160   0.08090
O          O       0.55840   0.11680   0.08090
O          O       0.55840   0.44160   0.08090
O          O       0.11680   0.55840   0.58090
O          O       0.44160   0.88320   0.58090
O          O       0.44160   0.55840   0.58090
O          O       0.20710   0.79300   0.89700
O          O       0.58590   0.79290   0.89700
O          O       0.20700   0.41410   0.89700
O          O       0.79290   0.20700   0.39700
O          O       0.41410   0.20710   0.39700
O          O       0.79300   0.58590   0.39700
O          O       0.79290   0.20700   0.10300
O          O       0.41410   0.20710   0.10300
O          O       0.79300   0.58590   0.10300
O          O       0.20710   0.79300   0.60300
O          O       0.58590   0.79290   0.60300
O          O       0.20700   0.41410   0.60300
O          O       0.54750   0.09500   0.81730
O          O       0.54750   0.45250   0.81730
O          O       0.90500   0.45250   0.81730
O          O       0.45250   0.90500   0.31730
O          O       0.45250   0.54750   0.31730
O          O       0.09500   0.54750   0.31730
O          O       0.45250   0.90500   0.18270
O          O       0.45250   0.54750   0.18270
O          O       0.09500   0.54750   0.18270
O          O       0.54750   0.09500   0.68270
O          O       0.54750   0.45250   0.68270
O          O       0.90500   0.45250   0.68270
O          O       0.41870   0.20930   0.82350
O          O       0.79060   0.58130   0.82350
O          O       0.79070   0.20940   0.82350
O          O       0.58130   0.79070   0.32350
O          O       0.20940   0.41870   0.32350
O          O       0.20930   0.79060   0.32350
O          O       0.58130   0.79070   0.17650
O          O       0.20940   0.41870   0.17650
O          O       0.20930   0.79060   0.17650
O          O       0.41870   0.20930   0.67650
O          O       0.79060   0.58130   0.67650
O          O       0.79070   0.20940   0.67650
O          O       0.31300   0.98090   0.79330
O          O       0.66790   0.68700   0.79330
O          O       0.01910   0.33210   0.79330
O          O       0.68700   0.01910   0.29330
O          O       0.33210   0.31300   0.29330
O          O       0.98090   0.66790   0.29330
O          O       0.66790   0.98090   0.79330
O          O       0.01910   0.68700   0.79330
O          O       0.31300   0.33210   0.79330
O          O       0.33210   0.01910   0.29330
O          O       0.98090   0.31300   0.29330
O          O       0.68700   0.66790   0.29330
O          O       0.68700   0.01910   0.20670
O          O       0.33210   0.31300   0.20670
O          O       0.98090   0.66790   0.20670
O          O       0.31300   0.98090   0.70670
O          O       0.66790   0.68700   0.70670
O          O       0.01910   0.33210   0.70670
O          O       0.33210   0.01910   0.20670
O          O       0.98090   0.31300   0.20670
O          O       0.68700   0.66790   0.20670
O          O       0.66790   0.98090   0.70670
O          O       0.01910   0.68700   0.70670
O          O       0.31300   0.33210   0.70670
O          O       0.53050   0.46950   0.25000
O          O       0.93900   0.46950   0.25000
O          O       0.53050   0.06100   0.25000
O          O       0.46950   0.53050   0.75000
O          O       0.06100   0.53050   0.75000
O          O       0.46950   0.93900   0.75000
O          O       0.46130   0.23060   0.25000
O          O       0.76930   0.53870   0.25000
O          O       0.76940   0.23070   0.25000
O          O       0.53870   0.76940   0.75000
O          O       0.23070   0.46130   0.75000
O          O       0.23060   0.76930   0.75000
O          O       0.03870   0.69460   0.95920
O          O       0.65590   0.96130   0.95920
O          O       0.30540   0.34410   0.95920
O          O       0.96130   0.30540   0.45920
O          O       0.34410   0.03870   0.45920
O          O       0.69460   0.65590   0.45920
O          O       0.65590   0.69460   0.95920
O          O       0.30540   0.96130   0.95920
O          O       0.03870   0.34410   0.95920
O          O       0.34410   0.30540   0.45920
O          O       0.69460   0.03870   0.45920
O          O       0.96130   0.65590   0.45920
O          O       0.96130   0.30540   0.04080
O          O       0.34410   0.03870   0.04080
O          O       0.69460   0.65590   0.04080
O          O       0.03870   0.69460   0.54080
O          O       0.65590   0.96130   0.54080
O          O       0.30540   0.34410   0.54080
O          O       0.34410   0.30540   0.04080
O          O       0.69460   0.03870   0.04080
O          O       0.96130   0.65590   0.04080
O          O       0.65590   0.69460   0.54080
O          O       0.30540   0.96130   0.54080
O          O       0.03870   0.34410   0.54080
