data_crystal

_cell_length_a    7.61800
_cell_length_b    18.10200
_cell_length_c    18.10200
_cell_angle_alpha 120.00000
_cell_angle_beta  90.00000
_cell_angle_gamma 90.00000

_space_group_name_Hall 'P 1'
_space_group_name_H-M_alt 'P 1'

loop_
_symmetry_equiv_pos_as_xyz
 'x,y,z'

loop_
_atom_site_label
_atom_site_type_symbol
_atom_site_fract_x
_atom_site_fract_y
_atom_site_fract_z
Si         Si      0.95130   0.90570   0.26180
Si         Si      0.95130   0.35610   0.09430
Si         Si      0.95130   0.73820   0.64390
Si         Si      0.45130   0.09430   0.73820
Si         Si      0.45130   0.64390   0.90570
Si         Si      0.45130   0.26180   0.35610
Si         Si      0.95130   0.35610   0.26180
Si         Si      0.95130   0.73820   0.09430
Si         Si      0.95130   0.90570   0.64390
Si         Si      0.45130   0.64390   0.73820
Si         Si      0.45130   0.26180   0.90570
Si         Si      0.45130   0.09430   0.35610
Si         Si      0.04870   0.09430   0.73820
Si         Si      0.04870   0.64390   0.90570
Si         Si      0.04870   0.26180   0.35610
Si         Si      0.54870   0.90570   0.26180
Si         Si      0.54870   0.35610   0.09430
Si         Si      0.54870   0.73820   0.64390
Si         Si      0.04870   0.64390   0.73820
Si         Si      0.04870   0.26180   0.90570
Si         Si      0.04870   0.09430   0.35610
Si         Si      0.54870   0.35610   0.26180
Si         Si      0.54870   0.73820   0.09430
Si         Si      0.54870   0.90570   0.64390
Si         Si      0.75000   0.50660   0.66900
Si         Si      0.75000   0.16240   0.49340
Si         Si      0.75000   0.33100   0.83760
Si         Si      0.25000   0.49340   0.33100
Si         Si      0.25000   0.83760   0.50660
Si         Si      0.25000   0.66900   0.16240
Si         Si      0.75000   0.16240   0.66900
Si         Si      0.75000   0.33100   0.49340
Si         Si      0.75000   0.50660   0.83760
Si         Si      0.25000   0.83760   0.33100
Si         Si      0.25000   0.66900   0.50660
Si         Si      0.25000   0.49340   0.16240
O          O       0.00000   1.00000   0.28010
O          O       0.00000   0.28010   0.00000
O          O       1.00000   0.71990   0.71990
O          O       0.50000   0.00000   0.71990
O          O       0.50000   0.71990   0.00000
O          O       0.50000   0.28010   0.28010
O          O       1.00000   0.28010   0.28010
O          O       1.00000   0.71990   0.00000
O          O       0.00000   0.00000   0.71990
O          O       0.50000   0.71990   0.71990
O          O       0.50000   0.28010   0.00000
O          O       0.50000   1.00000   0.28010
O          O       0.07750   0.88070   0.31720
O          O       0.07750   0.43650   0.11930
O          O       0.07750   0.68280   0.56350
O          O       0.57750   0.11930   0.68280
O          O       0.57750   0.56350   0.88070
O          O       0.57750   0.31720   0.43650
O          O       0.07750   0.43650   0.31720
O          O       0.07750   0.68280   0.11930
O          O       0.07750   0.88070   0.56350
O          O       0.57750   0.56350   0.68280
O          O       0.57750   0.31720   0.88070
O          O       0.57750   0.11930   0.43650
O          O       0.92250   0.11930   0.68280
O          O       0.92250   0.56350   0.88070
O          O       0.92250   0.31720   0.43650
O          O       0.42250   0.88070   0.31720
O          O       0.42250   0.43650   0.11930
O          O       0.42250   0.68280   0.56350
O          O       0.92250   0.56350   0.68280
O          O       0.92250   0.31720   0.88070
O          O       0.92250   0.11930   0.43650
O          O       0.42250   0.43650   0.31720
O          O       0.42250   0.68280   0.11930
O          O       0.42250   0.88070   0.56350
O          O       0.97730   0.83800   0.16190
O          O       0.97730   0.32390   0.16200
O          O       0.97730   0.83810   0.67610
O          O       0.47730   0.16200   0.83810
O          O       0.47730   0.67610   0.83800
O          O       0.47730   0.16190   0.32390
O          O       0.02270   0.16200   0.83810
O          O       0.02270   0.67610   0.83800
O          O       0.02270   0.16190   0.32390
O          O       0.52270   0.83800   0.16190
O          O       0.52270   0.32390   0.16200
O          O       0.52270   0.83810   0.67610
O          O       0.75000   0.90410   0.28800
O          O       0.75000   0.38390   0.09590
O          O       0.75000   0.71200   0.61610
O          O       0.25000   0.09590   0.71200
O          O       0.25000   0.61610   0.90410
O          O       0.25000   0.28800   0.38390
O          O       0.75000   0.38390   0.28800
O          O       0.75000   0.71200   0.09590
O          O       0.75000   0.90410   0.61610
O          O       0.25000   0.61610   0.71200
O          O       0.25000   0.28800   0.90410
O          O       0.25000   0.09590   0.38390
O          O       0.75000   0.47370   0.73680
O          O       0.75000   0.26310   0.52630
O          O       0.75000   0.26320   0.73690
O          O       0.25000   0.52630   0.26320
O          O       0.25000   0.73690   0.47370
O          O       0.25000   0.73680   0.26310
O          O       0.75000   0.42640   0.57370
O          O       0.75000   0.14730   0.57360
O          O       0.75000   0.42630   0.85270
O          O       0.25000   0.57360   0.42630
O          O       0.25000   0.85270   0.42640
O          O       0.25000   0.57370   0.14730
