data_crystal

_cell_length_a    13.11400
_cell_length_b    13.11400
_cell_length_c    15.56300
_cell_angle_alpha 90.00000
_cell_angle_beta  90.00000
_cell_angle_gamma 120.00000

_space_group_name_Hall 'P 1'
_space_group_name_H-M_alt 'P 1'

loop_
_symmetry_equiv_pos_as_xyz
 'x,y,z'

loop_
_atom_site_label
_atom_site_type_symbol
_atom_site_fract_x
_atom_site_fract_y
_atom_site_fract_z
Si         Si      0.33040   0.47830   0.52950
Si         Si      0.14790   0.66960   0.52950
Si         Si      0.52170   0.85210   0.52950
Si         Si      0.66960   0.52170   0.02950
Si         Si      0.85210   0.33040   0.02950
Si         Si      0.47830   0.14790   0.02950
Si         Si      0.66960   0.52170   0.47050
Si         Si      0.85210   0.33040   0.47050
Si         Si      0.47830   0.14790   0.47050
Si         Si      0.33040   0.47830   0.97050
Si         Si      0.14790   0.66960   0.97050
Si         Si      0.52170   0.85210   0.97050
Si         Si      0.54810   0.66550   0.43230
Si         Si      0.11740   0.45190   0.43230
Si         Si      0.33450   0.88260   0.43230
Si         Si      0.45190   0.33450   0.93230
Si         Si      0.88260   0.54810   0.93230
Si         Si      0.66550   0.11740   0.93230
Si         Si      0.45190   0.33450   0.56770
Si         Si      0.88260   0.54810   0.56770
Si         Si      0.66550   0.11740   0.56770
Si         Si      0.54810   0.66550   0.06770
Si         Si      0.11740   0.45190   0.06770
Si         Si      0.33450   0.88260   0.06770
Si         Si      0.47350   0.69240   0.25000
Si         Si      0.21890   0.52650   0.25000
Si         Si      0.30760   0.78110   0.25000
Si         Si      0.52650   0.30760   0.75000
Si         Si      0.78110   0.47350   0.75000
Si         Si      0.69240   0.21890   0.75000
Si         Si      0.33333   0.66667   0.64670
Si         Si      0.66667   0.33333   0.14670
Si         Si      0.66667   0.33333   0.35330
Si         Si      0.33333   0.66667   0.85330
O          O       0.19700   0.42390   0.49610
O          O       0.22690   0.80300   0.49610
O          O       0.57610   0.77310   0.49610
O          O       0.80300   0.57610   0.99610
O          O       0.77310   0.19700   0.99610
O          O       0.42390   0.22690   0.99610
O          O       0.80300   0.57610   0.50390
O          O       0.77310   0.19700   0.50390
O          O       0.42390   0.22690   0.50390
O          O       0.19700   0.42390   0.00390
O          O       0.22690   0.80300   0.00390
O          O       0.57610   0.77310   0.00390
O          O       0.35040   0.56050   0.61190
O          O       0.21010   0.64960   0.61190
O          O       0.43950   0.78990   0.61190
O          O       0.64960   0.43950   0.11190
O          O       0.78990   0.35040   0.11190
O          O       0.56050   0.21010   0.11190
O          O       0.64960   0.43950   0.38810
O          O       0.78990   0.35040   0.38810
O          O       0.56050   0.21010   0.38810
O          O       0.35040   0.56050   0.88810
O          O       0.21010   0.64960   0.88810
O          O       0.43950   0.78990   0.88810
O          O       0.35390   0.37310   0.55560
O          O       0.01920   0.64610   0.55560
O          O       0.62690   0.98080   0.55560
O          O       0.64610   0.62690   0.05560
O          O       0.98080   0.35390   0.05560
O          O       0.37310   0.01920   0.05560
O          O       0.64610   0.62690   0.44440
O          O       0.98080   0.35390   0.44440
O          O       0.37310   0.01920   0.44440
O          O       0.35390   0.37310   0.94440
O          O       0.01920   0.64610   0.94440
O          O       0.62690   0.98080   0.94440
O          O       0.42000   0.55580   0.45420
O          O       0.13580   0.58000   0.45420
O          O       0.44420   0.86420   0.45420
O          O       0.58000   0.44420   0.95420
O          O       0.86420   0.42000   0.95420
O          O       0.55580   0.13580   0.95420
O          O       0.58000   0.44420   0.54580
O          O       0.86420   0.42000   0.54580
O          O       0.55580   0.13580   0.54580
O          O       0.42000   0.55580   0.04580
O          O       0.13580   0.58000   0.04580
O          O       0.44420   0.86420   0.04580
O          O       0.55020   0.70650   0.33450
O          O       0.15630   0.44980   0.33450
O          O       0.29350   0.84370   0.33450
O          O       0.44980   0.29350   0.83450
O          O       0.84370   0.55020   0.83450
O          O       0.70650   0.15630   0.83450
O          O       0.44980   0.29350   0.66550
O          O       0.84370   0.55020   0.66550
O          O       0.70650   0.15630   0.66550
O          O       0.55020   0.70650   0.16550
O          O       0.15630   0.44980   0.16550
O          O       0.29350   0.84370   0.16550
O          O       0.43550   0.79180   0.25000
O          O       0.35630   0.56450   0.25000
O          O       0.20820   0.64370   0.25000
O          O       0.56450   0.20820   0.75000
O          O       0.64370   0.43550   0.75000
O          O       0.79180   0.35630   0.75000
O          O       0.33333   0.66667   0.75000
O          O       0.66667   0.33333   0.25000
