data_crystal

_cell_length_a    13.45900
_cell_length_b    15.83422
_cell_length_c    15.83422
_cell_angle_alpha 79.59397
_cell_angle_beta  64.84952
_cell_angle_gamma 64.84952

_space_group_name_Hall 'P 1'
_space_group_name_H-M_alt 'P 1'

loop_
_symmetry_equiv_pos_as_xyz
 'x,y,z'

loop_
_atom_site_label
_atom_site_type_symbol
_atom_site_fract_x
_atom_site_fract_y
_atom_site_fract_z
O          O       0.00150   0.78300   0.02700
O          O       0.97150   0.02700   0.21700
O          O       0.81150   0.21700   0.97300
O          O       0.21550   0.97300   0.78300
O          O       0.81150   0.97300   0.21700
O          O       0.21550   0.78300   0.97300
O          O       0.00150   0.02700   0.78300
O          O       0.97150   0.21700   0.02700
O          O       0.00140   0.65080   0.15400
O          O       0.84460   0.15400   0.34920
O          O       0.80620   0.34920   0.84600
O          O       0.34780   0.84600   0.65080
O          O       0.80620   0.84600   0.34920
O          O       0.34780   0.65080   0.84600
O          O       0.00140   0.15400   0.65080
O          O       0.84460   0.34920   0.15400
O          O       0.82540   0.72560   0.09680
O          O       0.07780   0.09680   0.27440
O          O       0.64780   0.27440   0.90320
O          O       0.44900   0.90320   0.72560
O          O       0.64780   0.90320   0.27440
O          O       0.44900   0.72560   0.90320
O          O       0.82540   0.09680   0.72560
O          O       0.07780   0.27440   0.09680
O          O       0.03790   0.61660   0.98460
O          O       0.97750   0.98460   0.38340
O          O       0.63910   0.38340   0.01540
O          O       0.34550   0.01540   0.61660
O          O       0.63910   0.01540   0.38340
O          O       0.34550   0.61660   0.01540
O          O       0.03790   0.98460   0.61660
O          O       0.97750   0.38340   0.98460
O          O       0.66930   0.67910   0.07950
O          O       0.25120   0.07950   0.32090
O          O       0.42790   0.32090   0.92050
O          O       0.65160   0.92050   0.67910
O          O       0.42790   0.92050   0.32090
O          O       0.65160   0.67910   0.92050
O          O       0.66930   0.07950   0.67910
O          O       0.25120   0.32090   0.07950
O          O       0.75780   0.59730   0.20610
O          O       0.03610   0.20610   0.40270
O          O       0.56120   0.40270   0.79390
O          O       0.64490   0.79390   0.59730
O          O       0.56120   0.79390   0.40270
O          O       0.64490   0.59730   0.79390
O          O       0.75780   0.20610   0.59730
O          O       0.03610   0.40270   0.20610
O          O       0.60810   0.77330   0.22670
O          O       0.16520   0.22670   0.22670
O          O       0.60810   0.22670   0.77330
O          O       0.61860   0.77330   0.77330
O          O       0.21890   0.57800   0.82180
O          O       0.95930   0.82180   0.42200
O          O       0.61870   0.42200   0.17820
O          O       0.20310   0.17820   0.57800
O          O       0.61870   0.17820   0.42200
O          O       0.20310   0.57800   0.17820
O          O       0.21890   0.82180   0.57800
O          O       0.95930   0.42200   0.82180
O          O       0.06480   0.50000   0.87040
O          O       0.06480   0.87040   0.50000
O          O       0.43520   0.50000   0.12960
O          O       0.43520   0.12960   0.50000
O          O       0.21300   0.45070   0.95410
O          O       0.83290   0.95410   0.54930
O          O       0.61780   0.54930   0.04590
O          O       0.33630   0.04590   0.45070
O          O       0.61780   0.04590   0.54930
O          O       0.33630   0.45070   0.04590
O          O       0.21300   0.95410   0.45070
O          O       0.83290   0.54930   0.95410
O          O       0.28070   0.70480   0.70480
O          O       0.01450   0.70480   0.29520
O          O       0.69030   0.29520   0.29520
O          O       0.01450   0.29520   0.70480
O          O       0.44240   0.53670   0.70610
O          O       0.85150   0.70610   0.46330
O          O       0.68520   0.46330   0.29390
O          O       0.02090   0.29390   0.53670
O          O       0.68520   0.29390   0.46330
O          O       0.02090   0.53670   0.29390
O          O       0.44240   0.70610   0.53670
O          O       0.85150   0.46330   0.70610
O          O       0.60880   0.61820   0.38180
O          O       0.00940   0.38180   0.38180
O          O       0.60880   0.38180   0.61820
O          O       0.77300   0.61820   0.61820
O          O       0.83180   0.50000   0.33640
O          O       0.83180   0.33640   0.50000
O          O       0.66820   0.50000   0.66360
O          O       0.66820   0.66360   0.50000
O          O       0.02900   0.91240   0.08760
O          O       0.88340   0.08760   0.08760
O          O       0.02900   0.08760   0.91240
O          O       0.05860   0.91240   0.91240
Si         Si      0.96670   0.69390   0.06550
Si         Si      0.96780   0.06550   0.30610
Si         Si      0.72610   0.30610   0.93450
Si         Si      0.33940   0.93450   0.69390
Si         Si      0.72610   0.93450   0.30610
Si         Si      0.33940   0.69390   0.93450
Si         Si      0.96670   0.06550   0.69390
Si         Si      0.96780   0.30610   0.06550
Si         Si      0.71500   0.69400   0.15240
Si         Si      0.13260   0.15240   0.30600
Si         Si      0.56140   0.30600   0.84760
Si         Si      0.59100   0.84760   0.69400
Si         Si      0.56140   0.84760   0.30600
Si         Si      0.59100   0.69400   0.84760
Si         Si      0.71500   0.15240   0.69400
Si         Si      0.13260   0.30600   0.15240
Si         Si      0.13400   0.53640   0.90780
Si         Si      0.95820   0.90780   0.46360
Si         Si      0.57820   0.46360   0.09220
Si         Si      0.32960   0.09220   0.53640
Si         Si      0.57820   0.09220   0.46360
Si         Si      0.32960   0.53640   0.09220
Si         Si      0.13400   0.90780   0.53640
Si         Si      0.95820   0.46360   0.90780
Si         Si      0.32230   0.61770   0.76970
Si         Si      0.90800   0.76970   0.38230
Si         Si      0.70970   0.38230   0.23030
Si         Si      0.06000   0.23030   0.61770
Si         Si      0.70970   0.23030   0.38230
Si         Si      0.06000   0.61770   0.23030
Si         Si      0.32230   0.76970   0.61770
Si         Si      0.90800   0.38230   0.76970
Si         Si      0.72120   0.54450   0.30430
Si         Si      0.97450   0.30430   0.45550
Si         Si      0.57000   0.45550   0.69570
Si         Si      0.73430   0.69570   0.54450
Si         Si      0.57000   0.69570   0.45550
Si         Si      0.73430   0.54450   0.69570
Si         Si      0.72120   0.30430   0.54450
Si         Si      0.97450   0.45550   0.30430
Si         Si      0.07620   0.84760   0.00000
Si         Si      0.92380   0.00000   0.15240
Si         Si      0.92380   0.15240   1.00000
Si         Si      0.07620   0.00000   0.84760
Si         Si      0.69300   0.61400   1.00000
Si         Si      0.30700   0.00000   0.38600
Si         Si      0.30700   0.38600   0.00000
Si         Si      0.69300   0.00000   0.61400
