data_crystal

_cell_length_a    13.70500
_cell_length_b    13.70500
_cell_length_c    13.70500
_cell_angle_alpha 90.00000
_cell_angle_beta  90.00000
_cell_angle_gamma 90.00000

_space_group_name_Hall 'P 1'
_space_group_name_H-M_alt 'P 1'

loop_
_symmetry_equiv_pos_as_xyz
 'x,y,z'

loop_
_atom_site_label
_atom_site_type_symbol
_atom_site_fract_x
_atom_site_fract_y
_atom_site_fract_z
Si         Si      0.00000   0.30980   0.11240
Si         Si      0.11240   0.00000   0.30980
Si         Si      0.30980   0.11240   0.00000
Si         Si      0.00000   0.30980   0.88760
Si         Si      0.11240   0.00000   0.69020
Si         Si      0.88760   0.00000   0.30980
Si         Si      0.69020   0.11240   0.00000
Si         Si      0.88760   0.00000   0.69020
Si         Si      0.80980   0.50000   0.61240
Si         Si      0.50000   0.61240   0.80980
Si         Si      0.61240   0.80980   0.50000
Si         Si      0.80980   0.50000   0.38760
Si         Si      0.50000   0.61240   0.19020
Si         Si      0.50000   0.38760   0.80980
Si         Si      0.61240   0.19020   0.50000
Si         Si      0.50000   0.38760   0.19020
Si         Si      0.00000   0.69020   0.88760
Si         Si      0.69020   0.88760   0.00000
Si         Si      0.00000   0.69020   0.11240
Si         Si      0.30980   0.88760   0.00000
Si         Si      0.19020   0.50000   0.38760
Si         Si      0.38760   0.19020   0.50000
Si         Si      0.19020   0.50000   0.61240
Si         Si      0.38760   0.80980   0.50000
Si         Si      0.18230   0.18230   0.18230
Si         Si      0.18230   0.18230   0.81770
Si         Si      0.81770   0.18230   0.18230
Si         Si      0.81770   0.18230   0.81770
Si         Si      0.68230   0.68230   0.68230
Si         Si      0.68230   0.68230   0.31770
Si         Si      0.68230   0.31770   0.68230
Si         Si      0.68230   0.31770   0.31770
Si         Si      0.81770   0.81770   0.81770
Si         Si      0.81770   0.81770   0.18230
Si         Si      0.18230   0.81770   0.81770
Si         Si      0.18230   0.81770   0.18230
Si         Si      0.31770   0.31770   0.31770
Si         Si      0.31770   0.31770   0.68230
Si         Si      0.31770   0.68230   0.31770
Si         Si      0.31770   0.68230   0.68230
Si         Si      0.25000   0.00000   0.50000
Si         Si      0.50000   0.25000   0.00000
Si         Si      0.00000   0.50000   0.25000
Si         Si      0.00000   0.50000   0.75000
Si         Si      0.75000   0.00000   0.50000
Si         Si      0.50000   0.75000   0.00000
O          O       0.00000   0.34390   0.00000
O          O       0.00000   0.00000   0.34390
O          O       0.34390   0.00000   0.00000
O          O       0.00000   0.00000   0.65610
O          O       0.65610   0.00000   0.00000
O          O       0.84390   0.50000   0.50000
O          O       0.50000   0.50000   0.84390
O          O       0.50000   0.84390   0.50000
O          O       0.50000   0.50000   0.15610
O          O       0.50000   0.15610   0.50000
O          O       0.00000   0.65610   0.00000
O          O       0.15610   0.50000   0.50000
O          O       0.09620   0.24620   0.13440
O          O       0.13440   0.09620   0.24620
O          O       0.24620   0.13440   0.09620
O          O       0.09620   0.24620   0.86560
O          O       0.13440   0.09620   0.75380
O          O       0.24620   0.13440   0.90380
O          O       0.90380   0.24620   0.13440
O          O       0.86560   0.09620   0.24620
O          O       0.75380   0.13440   0.09620
O          O       0.90380   0.24620   0.86560
O          O       0.86560   0.09620   0.75380
O          O       0.75380   0.13440   0.90380
O          O       0.74620   0.59620   0.63440
O          O       0.59620   0.63440   0.74620
O          O       0.63440   0.74620   0.59620
O          O       0.74620   0.59620   0.36560
O          O       0.59620   0.63440   0.25380
O          O       0.63440   0.74620   0.40380
O          O       0.74620   0.40380   0.63440
O          O       0.59620   0.36560   0.74620
O          O       0.63440   0.25380   0.59620
O          O       0.74620   0.40380   0.36560
O          O       0.59620   0.36560   0.25380
O          O       0.63440   0.25380   0.40380
O          O       0.90380   0.75380   0.86560
O          O       0.86560   0.90380   0.75380
O          O       0.75380   0.86560   0.90380
O          O       0.90380   0.75380   0.13440
O          O       0.86560   0.90380   0.24620
O          O       0.75380   0.86560   0.09620
O          O       0.09620   0.75380   0.86560
O          O       0.13440   0.90380   0.75380
O          O       0.24620   0.86560   0.90380
O          O       0.09620   0.75380   0.13440
O          O       0.13440   0.90380   0.24620
O          O       0.24620   0.86560   0.09620
O          O       0.25380   0.40380   0.36560
O          O       0.40380   0.36560   0.25380
O          O       0.36560   0.25380   0.40380
O          O       0.25380   0.40380   0.63440
O          O       0.40380   0.36560   0.74620
O          O       0.36560   0.25380   0.59620
O          O       0.25380   0.59620   0.36560
O          O       0.40380   0.63440   0.25380
O          O       0.36560   0.74620   0.40380
O          O       0.25380   0.59620   0.63440
O          O       0.40380   0.63440   0.74620
O          O       0.36560   0.74620   0.59620
O          O       0.00000   0.40420   0.18220
O          O       0.18220   0.00000   0.40420
O          O       0.40420   0.18220   0.00000
O          O       0.00000   0.40420   0.81780
O          O       0.18220   0.00000   0.59580
O          O       0.81780   0.00000   0.40420
O          O       0.59580   0.18220   0.00000
O          O       0.81780   0.00000   0.59580
O          O       0.90420   0.50000   0.68220
O          O       0.50000   0.68220   0.90420
O          O       0.68220   0.90420   0.50000
O          O       0.90420   0.50000   0.31780
O          O       0.50000   0.68220   0.09580
O          O       0.50000   0.31780   0.90420
O          O       0.68220   0.09580   0.50000
O          O       0.50000   0.31780   0.09580
O          O       0.00000   0.59580   0.81780
O          O       0.59580   0.81780   0.00000
O          O       0.00000   0.59580   0.18220
O          O       0.40420   0.81780   0.00000
O          O       0.09580   0.50000   0.31780
O          O       0.31780   0.09580   0.50000
O          O       0.09580   0.50000   0.68220
O          O       0.31780   0.90420   0.50000
O          O       0.25000   0.25000   0.25000
O          O       0.25000   0.25000   0.75000
O          O       0.75000   0.25000   0.25000
O          O       0.75000   0.25000   0.75000
O          O       0.75000   0.75000   0.75000
O          O       0.75000   0.75000   0.25000
O          O       0.25000   0.75000   0.75000
O          O       0.25000   0.75000   0.25000
