data_crystal

_cell_length_a    9.95400
_cell_length_b    11.08777
_cell_length_c    11.08777
_cell_angle_alpha 78.37607
_cell_angle_beta  63.32860
_cell_angle_gamma 63.32860

_space_group_name_Hall 'P 1'
_space_group_name_H-M_alt 'P 1'

loop_
_symmetry_equiv_pos_as_xyz
 'x,y,z'

loop_
_atom_site_label
_atom_site_type_symbol
_atom_site_fract_x
_atom_site_fract_y
_atom_site_fract_z
O          O       0.98860   0.65480   0.00000
O          O       0.64340   1.00000   0.34520
O          O       0.64340   0.34520   0.00000
O          O       0.98860   0.00000   0.65480
O          O       0.01140   0.34520   0.00000
O          O       0.35660   0.00000   0.65480
O          O       0.35660   0.65480   0.00000
O          O       0.01140   1.00000   0.34520
O          O       0.12230   0.58010   0.17530
O          O       0.70240   0.17530   0.41990
O          O       0.87770   0.41990   0.82470
O          O       0.29760   0.82470   0.58010
O          O       0.87770   0.82470   0.41990
O          O       0.29760   0.58010   0.82470
O          O       0.12230   0.17530   0.58010
O          O       0.70240   0.41990   0.17530
O          O       0.81340   0.75430   0.24570
O          O       0.56770   0.24570   0.24570
O          O       0.81340   0.24570   0.75430
O          O       0.05910   0.75430   0.75430
O          O       0.18660   0.24570   0.75430
O          O       0.43230   0.75430   0.75430
O          O       0.18660   0.75430   0.24570
O          O       0.94090   0.24570   0.24570
O          O       0.89750   0.50000   0.20500
O          O       0.39750   0.20500   0.50000
O          O       0.60250   0.50000   0.79500
O          O       0.10250   0.79500   0.50000
O          O       0.60250   0.79500   0.50000
O          O       0.10250   0.50000   0.79500
O          O       0.89750   0.20500   0.50000
O          O       0.39750   0.50000   0.20500
Si         Si      0.95560   0.62230   0.15650
Si         Si      0.57790   0.15650   0.37770
Si         Si      0.73440   0.37770   0.84350
Si         Si      0.11210   0.84350   0.62230
Si         Si      0.73440   0.84350   0.37770
Si         Si      0.11210   0.62230   0.84350
Si         Si      0.95560   0.15650   0.62230
Si         Si      0.57790   0.37770   0.15650
Si         Si      0.04440   0.37770   0.84350
Si         Si      0.42210   0.84350   0.62230
Si         Si      0.26560   0.62230   0.15650
Si         Si      0.88790   0.15650   0.37770
Si         Si      0.26560   0.15650   0.62230
Si         Si      0.88790   0.37770   0.15650
Si         Si      0.04440   0.84350   0.37770
Si         Si      0.42210   0.62230   0.84350
