data_crystal

_cell_length_a    13.14200
_cell_length_b    19.73800
_cell_length_c    20.09000
_cell_angle_alpha 90.00000
_cell_angle_beta  90.00000
_cell_angle_gamma 90.00000

_space_group_name_Hall 'P 1'
_space_group_name_H-M_alt 'P 1'

loop_
_symmetry_equiv_pos_as_xyz
 'x,y,z'

loop_
_atom_site_label
_atom_site_type_symbol
_atom_site_fract_x
_atom_site_fract_y
_atom_site_fract_z
Si         Si      0.31020   0.92890   0.57860
Si         Si      0.81020   0.42890   0.92140
Si         Si      0.31020   0.57110   0.57860
Si         Si      0.81020   0.07110   0.92140
Si         Si      0.68980   0.07110   0.42140
Si         Si      0.18980   0.57110   0.07860
Si         Si      0.68980   0.42890   0.42140
Si         Si      0.18980   0.92890   0.07860
Si         Si      0.15000   0.96640   0.67410
Si         Si      0.65000   0.46640   0.82590
Si         Si      0.15000   0.53360   0.67410
Si         Si      0.65000   0.03360   0.82590
Si         Si      0.85000   0.03360   0.32590
Si         Si      0.35000   0.53360   0.17410
Si         Si      0.85000   0.46640   0.32590
Si         Si      0.35000   0.96640   0.17410
Si         Si      0.93450   0.94640   0.72080
Si         Si      0.43450   0.44640   0.77920
Si         Si      0.93450   0.55360   0.72080
Si         Si      0.43450   0.05360   0.77920
Si         Si      0.06550   0.05360   0.27920
Si         Si      0.56550   0.55360   0.22080
Si         Si      0.06550   0.44640   0.27920
Si         Si      0.56550   0.94640   0.22080
Si         Si      0.95190   0.94860   0.87540
Si         Si      0.45190   0.44860   0.62460
Si         Si      0.95190   0.55140   0.87540
Si         Si      0.45190   0.05140   0.62460
Si         Si      0.04810   0.05140   0.12460
Si         Si      0.54810   0.55140   0.37540
Si         Si      0.04810   0.44860   0.12460
Si         Si      0.54810   0.94860   0.37540
Si         Si      0.17670   0.96400   0.92790
Si         Si      0.67670   0.46400   0.57210
Si         Si      0.17670   0.53600   0.92790
Si         Si      0.67670   0.03600   0.57210
Si         Si      0.82330   0.03600   0.07210
Si         Si      0.32330   0.53600   0.42790
Si         Si      0.82330   0.46400   0.07210
Si         Si      0.32330   0.96400   0.42790
Si         Si      0.28030   0.93130   0.79660
Si         Si      0.78030   0.43130   0.70340
Si         Si      0.28030   0.56870   0.79660
Si         Si      0.78030   0.06870   0.70340
Si         Si      0.71970   0.06870   0.20340
Si         Si      0.21970   0.56870   0.29660
Si         Si      0.71970   0.43130   0.20340
Si         Si      0.21970   0.93130   0.29660
Si         Si      0.31950   0.17260   0.58050
Si         Si      0.81950   0.67260   0.91950
Si         Si      0.31950   0.32740   0.58050
Si         Si      0.81950   0.82740   0.91950
Si         Si      0.68050   0.82740   0.41950
Si         Si      0.18050   0.32740   0.08050
Si         Si      0.68050   0.67260   0.41950
Si         Si      0.18050   0.17260   0.08050
Si         Si      0.16390   0.12350   0.68480
Si         Si      0.66390   0.62350   0.81520
Si         Si      0.16390   0.37650   0.68480
Si         Si      0.66390   0.87650   0.81520
Si         Si      0.83610   0.87650   0.31520
Si         Si      0.33610   0.37650   0.18480
Si         Si      0.83610   0.62350   0.31520
Si         Si      0.33610   0.12350   0.18480
Si         Si      0.95980   0.17220   0.72670
Si         Si      0.45980   0.67220   0.77330
Si         Si      0.95980   0.32780   0.72670
Si         Si      0.45980   0.82780   0.77330
Si         Si      0.04020   0.82780   0.27330
Si         Si      0.54020   0.32780   0.22670
Si         Si      0.04020   0.67220   0.27330
Si         Si      0.54020   0.17220   0.22670
Si         Si      0.98170   0.17210   0.88150
Si         Si      0.48170   0.67210   0.61850
Si         Si      0.98170   0.32790   0.88150
Si         Si      0.48170   0.82790   0.61850
Si         Si      0.01830   0.82790   0.11850
Si         Si      0.51830   0.32790   0.38150
Si         Si      0.01830   0.67210   0.11850
Si         Si      0.51830   0.17210   0.38150
Si         Si      0.19130   0.12060   0.93430
Si         Si      0.69130   0.62060   0.56570
Si         Si      0.19130   0.37940   0.93430
Si         Si      0.69130   0.87940   0.56570
Si         Si      0.80870   0.87940   0.06570
Si         Si      0.30870   0.37940   0.43430
Si         Si      0.80870   0.62060   0.06570
Si         Si      0.30870   0.12060   0.43430
Si         Si      0.29080   0.17120   0.80530
Si         Si      0.79080   0.67120   0.69470
Si         Si      0.29080   0.32880   0.80530
Si         Si      0.79080   0.82880   0.69470
Si         Si      0.70920   0.82880   0.19470
Si         Si      0.20920   0.32880   0.30530
Si         Si      0.70920   0.67120   0.19470
Si         Si      0.20920   0.17120   0.30530
O          O       0.29820   0.93010   0.49880
O          O       0.79820   0.43010   0.00120
O          O       0.29820   0.56990   0.49880
O          O       0.79820   0.06990   0.00120
O          O       0.70180   0.06990   0.50120
O          O       0.20180   0.56990   0.99880
O          O       0.70180   0.43010   0.50120
O          O       0.20180   0.93010   0.99880
O          O       0.19920   0.92570   0.61250
O          O       0.69920   0.42570   0.88750
O          O       0.19920   0.57430   0.61250
O          O       0.69920   0.07430   0.88750
O          O       0.80080   0.07430   0.38750
O          O       0.30080   0.57430   0.11250
O          O       0.80080   0.42570   0.38750
O          O       0.30080   0.92570   0.11250
O          O       0.37490   0.86340   0.60050
O          O       0.87490   0.36340   0.89950
O          O       0.37490   0.63660   0.60050
O          O       0.87490   0.13660   0.89950
O          O       0.62510   0.13660   0.39950
O          O       0.12510   0.63660   0.10050
O          O       0.62510   0.36340   0.39950
O          O       0.12510   0.86340   0.10050
O          O       0.36740   0.99660   0.60280
O          O       0.86740   0.49660   0.89720
O          O       0.36740   0.50340   0.60280
O          O       0.86740   0.00340   0.89720
O          O       0.63260   0.00340   0.39720
O          O       0.13260   0.50340   0.10280
O          O       0.63260   0.49660   0.39720
O          O       0.13260   0.99660   0.10280
O          O       0.02780   0.96150   0.67100
O          O       0.52780   0.46150   0.82900
O          O       0.02780   0.53850   0.67100
O          O       0.52780   0.03850   0.82900
O          O       0.97220   0.03850   0.32900
O          O       0.47220   0.53850   0.17100
O          O       0.97220   0.46150   0.32900
O          O       0.47220   0.96150   0.17100
O          O       0.18450   0.04450   0.67030
O          O       0.68450   0.54450   0.82970
O          O       0.18450   0.45550   0.67030
O          O       0.68450   0.95550   0.82970
O          O       0.81550   0.95550   0.32970
O          O       0.31550   0.45550   0.17030
O          O       0.81550   0.54450   0.32970
O          O       0.31550   0.04450   0.17030
O          O       0.18940   0.93370   0.74290
O          O       0.68940   0.43370   0.75710
O          O       0.18940   0.56630   0.74290
O          O       0.68940   0.06630   0.75710
O          O       0.81060   0.06630   0.25710
O          O       0.31060   0.56630   0.24290
O          O       0.81060   0.43370   0.25710
O          O       0.31060   0.93370   0.24290
O          O       0.89400   0.87040   0.70900
O          O       0.39400   0.37040   0.79100
O          O       0.89400   0.62960   0.70900
O          O       0.39400   0.12960   0.79100
O          O       0.10600   0.12960   0.29100
O          O       0.60600   0.62960   0.20900
O          O       0.10600   0.37040   0.29100
O          O       0.60600   0.87040   0.20900
O          O       0.97250   0.95450   0.79660
O          O       0.47250   0.45450   0.70340
O          O       0.97250   0.54550   0.79660
O          O       0.47250   0.04550   0.70340
O          O       0.02750   0.04550   0.20340
O          O       0.52750   0.54550   0.29660
O          O       0.02750   0.45450   0.20340
O          O       0.52750   0.95450   0.29660
O          O       0.84360   0.99900   0.70640
O          O       0.34360   0.49900   0.79360
O          O       0.84360   0.50100   0.70640
O          O       0.34360   0.00100   0.79360
O          O       0.15640   0.00100   0.29360
O          O       0.65640   0.50100   0.20640
O          O       0.15640   0.49900   0.29360
O          O       0.65640   0.99900   0.20640
O          O       0.91170   0.87350   0.89250
O          O       0.41170   0.37350   0.60750
O          O       0.91170   0.62650   0.89250
O          O       0.41170   0.12650   0.60750
O          O       0.08830   0.12650   0.10750
O          O       0.58830   0.62650   0.39250
O          O       0.08830   0.37350   0.10750
O          O       0.58830   0.87350   0.39250
O          O       0.05570   0.96300   0.91540
O          O       0.55570   0.46300   0.58460
O          O       0.05570   0.53700   0.91540
O          O       0.55570   0.03700   0.58460
O          O       0.94430   0.03700   0.08460
O          O       0.44430   0.53700   0.41540
O          O       0.94430   0.46300   0.08460
O          O       0.44430   0.96300   0.41540
O          O       0.23300   0.92190   0.86990
O          O       0.73300   0.42190   0.63010
O          O       0.23300   0.57810   0.86990
O          O       0.73300   0.07810   0.63010
O          O       0.76700   0.07810   0.13010
O          O       0.26700   0.57810   0.36990
O          O       0.76700   0.42190   0.13010
O          O       0.26700   0.92190   0.36990
O          O       0.21680   0.04110   0.92720
O          O       0.71680   0.54110   0.57280
O          O       0.21680   0.45890   0.92720
O          O       0.71680   0.95890   0.57280
O          O       0.78320   0.95890   0.07280
O          O       0.28320   0.45890   0.42720
O          O       0.78320   0.54110   0.07280
O          O       0.28320   0.04110   0.42720
O          O       0.35440   0.86870   0.77990
O          O       0.85440   0.36870   0.72010
O          O       0.35440   0.63130   0.77990
O          O       0.85440   0.13130   0.72010
O          O       0.64560   0.13130   0.22010
O          O       0.14560   0.63130   0.27990
O          O       0.64560   0.36870   0.22010
O          O       0.14560   0.86870   0.27990
O          O       0.28310   0.14520   0.50890
O          O       0.78310   0.64520   0.99110
O          O       0.28310   0.35480   0.50890
O          O       0.78310   0.85480   0.99110
O          O       0.71690   0.85480   0.49110
O          O       0.21690   0.35480   0.00890
O          O       0.71690   0.64520   0.49110
O          O       0.21690   0.14520   0.00890
O          O       0.22570   0.16890   0.63190
O          O       0.72570   0.66890   0.86810
O          O       0.22570   0.33110   0.63190
O          O       0.72570   0.83110   0.86810
O          O       0.77430   0.83110   0.36810
O          O       0.27430   0.33110   0.13190
O          O       0.77430   0.66890   0.36810
O          O       0.27430   0.16890   0.13190
O          O       0.35690   0.25000   0.57370
O          O       0.85690   0.75000   0.92630
O          O       0.64310   0.75000   0.42630
O          O       0.14310   0.25000   0.07370
O          O       0.04390   0.13890   0.67830
O          O       0.54390   0.63890   0.82170
O          O       0.04390   0.36110   0.67830
O          O       0.54390   0.86110   0.82170
O          O       0.95610   0.86110   0.32170
O          O       0.45610   0.36110   0.17830
O          O       0.95610   0.63890   0.32170
O          O       0.45610   0.13890   0.17830
O          O       0.20100   0.14180   0.75900
O          O       0.70100   0.64180   0.74100
O          O       0.20100   0.35820   0.75900
O          O       0.70100   0.85820   0.74100
O          O       0.79900   0.85820   0.24100
O          O       0.29900   0.35820   0.25900
O          O       0.79900   0.64180   0.24100
O          O       0.29900   0.14180   0.25900
O          O       0.94210   0.25000   0.70570
O          O       0.44210   0.75000   0.79430
O          O       0.05790   0.75000   0.29430
O          O       0.55790   0.25000   0.20570
O          O       0.99970   0.16870   0.80240
O          O       0.49970   0.66870   0.69760
O          O       0.99970   0.33130   0.80240
O          O       0.49970   0.83130   0.69760
O          O       0.00030   0.83130   0.19760
O          O       0.50030   0.33130   0.30240
O          O       0.00030   0.66870   0.19760
O          O       0.50030   0.16870   0.30240
O          O       0.97950   0.25000   0.90520
O          O       0.47950   0.75000   0.59480
O          O       0.02050   0.75000   0.09480
O          O       0.52050   0.25000   0.40520
O          O       0.07250   0.13300   0.91910
O          O       0.57250   0.63300   0.58090
O          O       0.07250   0.36700   0.91910
O          O       0.57250   0.86700   0.58090
O          O       0.92750   0.86700   0.08090
O          O       0.42750   0.36700   0.41910
O          O       0.92750   0.63300   0.08090
O          O       0.42750   0.13300   0.41910
O          O       0.25940   0.16300   0.88230
O          O       0.75940   0.66300   0.61770
O          O       0.25940   0.33700   0.88230
O          O       0.75940   0.83700   0.61770
O          O       0.74060   0.83700   0.11770
O          O       0.24060   0.33700   0.38230
O          O       0.74060   0.66300   0.11770
O          O       0.24060   0.16300   0.38230
O          O       0.30870   0.25000   0.78840
O          O       0.80870   0.75000   0.71160
O          O       0.69130   0.75000   0.21160
O          O       0.19130   0.25000   0.28840
