data_crystal

_cell_length_a    7.54300
_cell_length_b    12.50520
_cell_length_c    12.50520
_cell_angle_alpha 70.23861
_cell_angle_beta  72.44659
_cell_angle_gamma 72.44659

_space_group_name_Hall 'P 1'
_space_group_name_H-M_alt 'P 1'

loop_
_symmetry_equiv_pos_as_xyz
 'x,y,z'

loop_
_atom_site_label
_atom_site_type_symbol
_atom_site_fract_x
_atom_site_fract_y
_atom_site_fract_z
O          O       0.07370   0.47510   0.02910
O          O       0.42210   0.47510   0.02910
O          O       0.07370   0.02910   0.47510
O          O       0.42210   0.02910   0.47510
O          O       0.12940   0.38800   0.85440
O          O       0.62820   0.38800   0.85440
O          O       0.12940   0.85440   0.38800
O          O       0.62820   0.85440   0.38800
O          O       0.79460   0.41110   0.99970
O          O       0.79460   0.99970   0.41110
O          O       0.08700   0.25340   0.07040
O          O       0.58920   0.25340   0.07040
O          O       0.08700   0.07040   0.25340
O          O       0.58920   0.07040   0.25340
O          O       0.21780   0.62460   0.44180
O          O       0.71580   0.62460   0.44180
O          O       0.21780   0.44180   0.62460
O          O       0.71580   0.44180   0.62460
O          O       0.18670   0.74680   0.22860
O          O       0.83790   0.74680   0.22860
O          O       0.18670   0.22860   0.74680
O          O       0.83790   0.22860   0.74680
O          O       0.47470   0.74400   0.30660
O          O       0.47470   0.30660   0.74400
O          O       0.05110   0.04020   0.85760
O          O       0.05110   0.85760   0.04020
O          O       0.13210   0.10620   0.62960
O          O       0.13210   0.62960   0.10620
O          O       0.18090   0.41020   0.22800
O          O       0.18090   0.22800   0.41020
O          O       0.40470   0.09530   0.09530
O          O       0.12830   0.04630   0.04630
O          O       0.77910   0.04630   0.04630
O          O       0.53430   0.46570   0.46570
O          O       0.25700   0.41720   0.41720
O          O       0.90860   0.41720   0.41720
Si         Si      0.02150   0.38160   0.98800
Si         Si      0.60890   0.38160   0.98800
Si         Si      0.02150   0.98800   0.38160
Si         Si      0.60890   0.98800   0.38160
Si         Si      0.25160   0.74250   0.34170
Si         Si      0.66420   0.74250   0.34170
Si         Si      0.25160   0.34170   0.74250
Si         Si      0.66420   0.34170   0.74250
Si         Si      0.05180   0.15140   0.74500
Si         Si      0.05180   0.74500   0.15140
Si         Si      0.20230   0.49700   0.09840
Si         Si      0.20230   0.09840   0.49700
Si         Si      0.17690   0.11660   0.11660
Si         Si      0.58990   0.11660   0.11660
Si         Si      0.30630   0.48730   0.48730
Si         Si      0.71910   0.48730   0.48730
Si         Si      0.13170   0.36830   0.36830
Si         Si      0.00220   0.99780   0.99780
