data_crystal

_cell_length_a    7.13500
_cell_length_b    7.13500
_cell_length_c    10.23446
_cell_angle_alpha 110.40031
_cell_angle_beta  110.40031
_cell_angle_gamma 90.00000

_space_group_name_Hall 'P 1'
_space_group_name_H-M_alt 'P 1'

loop_
_symmetry_equiv_pos_as_xyz
 'x,y,z'

loop_
_atom_site_label
_atom_site_type_symbol
_atom_site_fract_x
_atom_site_fract_y
_atom_site_fract_z
O          O       0.10870   0.35870   0.21740
O          O       0.35870   0.10870   0.71740
O          O       0.89130   0.64130   0.78260
O          O       0.64130   0.89130   0.28260
O          O       0.94080   0.69080   0.25000
O          O       0.05920   0.94080   0.75000
O          O       0.30920   0.05920   0.25000
O          O       0.69080   0.30920   0.75000
O          O       0.30920   0.69080   0.25000
O          O       0.69080   0.94080   0.75000
O          O       0.94080   0.05920   0.25000
O          O       0.05920   0.30920   0.75000
O          O       0.00000   0.50000   0.00000
O          O       0.00000   0.00000   0.50000
O          O       0.00000   0.00000   0.00000
O          O       0.50000   0.00000   0.50000
Si         Si      0.08950   0.55980   0.17900
Si         Si      0.11920   0.08950   0.67900
Si         Si      0.08950   0.11920   0.17900
Si         Si      0.55980   0.08950   0.67900
Si         Si      0.91050   0.44020   0.82100
Si         Si      0.88080   0.91050   0.32100
Si         Si      0.91050   0.88080   0.82100
Si         Si      0.44020   0.91050   0.32100
