data_crystal

_cell_length_a    7.54200
_cell_length_b    13.73796
_cell_length_c    13.73796
_cell_angle_alpha 96.72184
_cell_angle_beta  90.00000
_cell_angle_gamma 90.00000

_space_group_name_Hall 'P 1'
_space_group_name_H-M_alt 'P 1'

loop_
_symmetry_equiv_pos_as_xyz
 'x,y,z'

loop_
_atom_site_label
_atom_site_type_symbol
_atom_site_fract_x
_atom_site_fract_y
_atom_site_fract_z
O          O       1.00000   0.71890   0.71890
O          O       0.00000   0.28110   0.28110
O          O       0.50000   0.71890   0.71890
O          O       0.50000   0.28110   0.28110
O          O       0.75000   0.59370   0.75270
O          O       0.75000   0.24730   0.40630
O          O       0.25000   0.75270   0.59370
O          O       0.25000   0.40630   0.24730
O          O       0.07570   0.53190   0.71670
O          O       0.07570   0.28330   0.46810
O          O       0.57570   0.71670   0.53190
O          O       0.57570   0.46810   0.28330
O          O       0.92430   0.46810   0.28330
O          O       0.92430   0.71670   0.53190
O          O       0.42430   0.28330   0.46810
O          O       0.42430   0.53190   0.71670
O          O       0.00080   0.63860   0.88320
O          O       0.00080   0.11680   0.36140
O          O       0.50080   0.88320   0.63860
O          O       0.50080   0.36140   0.11680
O          O       0.99920   0.36140   0.11680
O          O       0.99920   0.88320   0.63860
O          O       0.49920   0.11680   0.36140
O          O       0.49920   0.63860   0.88320
O          O       0.75000   0.36580   0.98360
O          O       0.75000   0.01640   0.63420
O          O       0.25000   0.98360   0.36580
O          O       0.25000   0.63420   0.01640
O          O       0.00000   0.50000   0.00000
O          O       1.00000   0.00000   0.50000
O          O       0.50000   0.00000   0.50000
O          O       0.50000   0.50000   0.00000
O          O       0.07580   0.31850   0.93010
O          O       0.07580   0.06990   0.68150
O          O       0.57580   0.93010   0.31850
O          O       0.57580   0.68150   0.06990
O          O       0.92420   0.68150   0.06990
O          O       0.92420   0.93010   0.31850
O          O       0.42420   0.06990   0.68150
O          O       0.42420   0.31850   0.93010
O          O       0.75000   0.59950   0.40050
O          O       0.25000   0.40050   0.59950
O          O       0.75000   0.60850   0.21030
O          O       0.75000   0.78970   0.39150
O          O       0.25000   0.21030   0.60850
O          O       0.25000   0.39150   0.78970
O          O       0.75000   0.79870   0.20130
O          O       0.25000   0.20130   0.79870
Si         Si      0.95650   0.62070   0.76790
Si         Si      0.95650   0.23210   0.37930
Si         Si      0.45650   0.76790   0.62070
Si         Si      0.45650   0.37930   0.23210
Si         Si      0.04350   0.37930   0.23210
Si         Si      0.04350   0.76790   0.62070
Si         Si      0.54350   0.23210   0.37930
Si         Si      0.54350   0.62070   0.76790
Si         Si      0.95630   0.38660   0.00780
Si         Si      0.95630   0.99220   0.61340
Si         Si      0.45630   0.00780   0.38660
Si         Si      0.45630   0.61340   0.99220
Si         Si      0.04370   0.61340   0.99220
Si         Si      0.04370   0.00780   0.38660
Si         Si      0.54370   0.99220   0.61340
Si         Si      0.54370   0.38660   0.00780
Si         Si      0.75000   0.53610   0.29430
Si         Si      0.75000   0.70570   0.46390
Si         Si      0.25000   0.29430   0.53610
Si         Si      0.25000   0.46390   0.70570
Si         Si      0.75000   0.69250   0.13790
Si         Si      0.75000   0.86210   0.30750
Si         Si      0.25000   0.13790   0.69250
Si         Si      0.25000   0.30750   0.86210
