data_crystal

_cell_length_a    7.55100
_cell_length_b    31.20200
_cell_length_c    31.20200
_cell_angle_alpha 120.00000
_cell_angle_beta  90.00000
_cell_angle_gamma 90.00000

_space_group_name_Hall 'P 1'
_space_group_name_H-M_alt 'P 1'

loop_
_symmetry_equiv_pos_as_xyz
 'x,y,z'

loop_
_atom_site_label
_atom_site_type_symbol
_atom_site_fract_x
_atom_site_fract_y
_atom_site_fract_z
Si         Si      0.79630   0.71000   0.90400
Si         Si      0.79630   0.19400   0.29000
Si         Si      0.79630   0.09600   0.80600
Si         Si      0.79630   0.29000   0.09600
Si         Si      0.79630   0.80600   0.71000
Si         Si      0.79630   0.90400   0.19400
Si         Si      0.79630   0.19400   0.90400
Si         Si      0.79630   0.09600   0.29000
Si         Si      0.79630   0.71000   0.80600
Si         Si      0.79630   0.80600   0.09600
Si         Si      0.79630   0.90400   0.71000
Si         Si      0.79630   0.29000   0.19400
Si         Si      0.20370   0.29000   0.09600
Si         Si      0.20370   0.80600   0.71000
Si         Si      0.20370   0.90400   0.19400
Si         Si      0.20370   0.71000   0.90400
Si         Si      0.20370   0.19400   0.29000
Si         Si      0.20370   0.09600   0.80600
Si         Si      0.20370   0.80600   0.09600
Si         Si      0.20370   0.90400   0.71000
Si         Si      0.20370   0.29000   0.19400
Si         Si      0.20370   0.19400   0.90400
Si         Si      0.20370   0.09600   0.29000
Si         Si      0.20370   0.71000   0.80600
Si         Si      0.79620   0.61230   0.90390
Si         Si      0.79620   0.29160   0.38770
Si         Si      0.79620   0.09610   0.70840
Si         Si      0.79620   0.38770   0.09610
Si         Si      0.79620   0.70840   0.61230
Si         Si      0.79620   0.90390   0.29160
Si         Si      0.79620   0.29160   0.90390
Si         Si      0.79620   0.09610   0.38770
Si         Si      0.79620   0.61230   0.70840
Si         Si      0.79620   0.70840   0.09610
Si         Si      0.79620   0.90390   0.61230
Si         Si      0.79620   0.38770   0.29160
Si         Si      0.20380   0.38770   0.09610
Si         Si      0.20380   0.70840   0.61230
Si         Si      0.20380   0.90390   0.29160
Si         Si      0.20380   0.61230   0.90390
Si         Si      0.20380   0.29160   0.38770
Si         Si      0.20380   0.09610   0.70840
Si         Si      0.20380   0.70840   0.09610
Si         Si      0.20380   0.90390   0.61230
Si         Si      0.20380   0.38770   0.29160
Si         Si      0.20380   0.29160   0.90390
Si         Si      0.20380   0.09610   0.38770
Si         Si      0.20380   0.61230   0.70840
Si         Si      0.79630   0.51430   0.80600
Si         Si      0.79630   0.29170   0.48570
Si         Si      0.79630   0.19400   0.70830
Si         Si      0.79630   0.48570   0.19400
Si         Si      0.79630   0.70830   0.51430
Si         Si      0.79630   0.80600   0.29170
Si         Si      0.79630   0.29170   0.80600
Si         Si      0.79630   0.19400   0.48570
Si         Si      0.79630   0.51430   0.70830
Si         Si      0.79630   0.70830   0.19400
Si         Si      0.79630   0.80600   0.51430
Si         Si      0.79630   0.48570   0.29170
Si         Si      0.20370   0.48570   0.19400
Si         Si      0.20370   0.70830   0.51430
Si         Si      0.20370   0.80600   0.29170
Si         Si      0.20370   0.51430   0.80600
Si         Si      0.20370   0.29170   0.48570
Si         Si      0.20370   0.19400   0.70830
Si         Si      0.20370   0.70830   0.19400
Si         Si      0.20370   0.80600   0.51430
Si         Si      0.20370   0.48570   0.29170
Si         Si      0.20370   0.29170   0.80600
Si         Si      0.20370   0.19400   0.48570
Si         Si      0.20370   0.51430   0.70830
Si         Si      0.50000   0.79080   0.94410
Si         Si      0.50000   0.15330   0.20920
Si         Si      0.50000   0.05590   0.84670
Si         Si      0.50000   0.20920   0.05590
Si         Si      0.50000   0.84670   0.79080
Si         Si      0.50000   0.94410   0.15330
Si         Si      0.50000   0.15330   0.94410
Si         Si      0.50000   0.05590   0.20920
Si         Si      0.50000   0.79080   0.84670
Si         Si      0.50000   0.84670   0.05590
Si         Si      0.50000   0.94410   0.79080
Si         Si      0.50000   0.20920   0.15330
Si         Si      0.50000   0.57150   0.94400
Si         Si      0.50000   0.37250   0.42850
Si         Si      0.50000   0.05600   0.62750
Si         Si      0.50000   0.42850   0.05600
Si         Si      0.50000   0.62750   0.57150
Si         Si      0.50000   0.94400   0.37250
Si         Si      0.50000   0.37250   0.94400
Si         Si      0.50000   0.05600   0.42850
Si         Si      0.50000   0.57150   0.62750
Si         Si      0.50000   0.62750   0.05600
Si         Si      0.50000   0.94400   0.57150
Si         Si      0.50000   0.42850   0.37250
Si         Si      0.50000   0.47420   0.84690
Si         Si      0.50000   0.37270   0.52580
Si         Si      0.50000   0.15310   0.62730
Si         Si      0.50000   0.52580   0.15310
Si         Si      0.50000   0.62730   0.47420
Si         Si      0.50000   0.84690   0.37270
Si         Si      0.50000   0.37270   0.84690
Si         Si      0.50000   0.15310   0.52580
Si         Si      0.50000   0.47420   0.62730
Si         Si      0.50000   0.62730   0.15310
Si         Si      0.50000   0.84690   0.47420
Si         Si      0.50000   0.52580   0.37270
O          O       0.50000   0.83690   0.00000
O          O       0.50000   0.16310   0.16310
O          O       0.50000   1.00000   0.83690
O          O       0.50000   0.16310   0.00000
O          O       0.50000   0.83690   0.83690
O          O       0.50000   1.00000   0.16310
O          O       0.50000   0.81040   0.90520
O          O       0.50000   0.09480   0.18960
O          O       0.50000   0.09480   0.90520
O          O       0.50000   0.18960   0.09480
O          O       0.50000   0.90520   0.81040
O          O       0.50000   0.90520   0.09480
O          O       0.67410   0.75790   0.93620
O          O       0.67410   0.17830   0.24210
O          O       0.67410   0.06380   0.82170
O          O       0.67410   0.24210   0.06380
O          O       0.67410   0.82170   0.75790
O          O       0.67410   0.93620   0.17830
O          O       0.67410   0.17830   0.93620
O          O       0.67410   0.06380   0.24210
O          O       0.67410   0.75790   0.82170
O          O       0.67410   0.82170   0.06380
O          O       0.67410   0.93620   0.75790
O          O       0.67410   0.24210   0.17830
O          O       0.32590   0.24210   0.06380
O          O       0.32590   0.82170   0.75790
O          O       0.32590   0.93620   0.17830
O          O       0.32590   0.75790   0.93620
O          O       0.32590   0.17830   0.24210
O          O       0.32590   0.06380   0.82170
O          O       0.32590   0.82170   0.06380
O          O       0.32590   0.93620   0.75790
O          O       0.32590   0.24210   0.17830
O          O       0.32590   0.17830   0.93620
O          O       0.32590   0.06380   0.24210
O          O       0.32590   0.75790   0.82170
O          O       0.77590   0.69250   0.84630
O          O       0.77590   0.15380   0.30750
O          O       0.77590   0.15370   0.84620
O          O       0.77590   0.30750   0.15370
O          O       0.77590   0.84620   0.69250
O          O       0.77590   0.84630   0.15380
O          O       0.22410   0.30750   0.15370
O          O       0.22410   0.84620   0.69250
O          O       0.22410   0.84630   0.15380
O          O       0.22410   0.69250   0.84630
O          O       0.22410   0.15380   0.30750
O          O       0.22410   0.15370   0.84620
O          O       0.00000   0.72390   0.92040
O          O       0.00000   0.19650   0.27610
O          O       1.00000   0.07960   0.80350
O          O       0.00000   0.27610   0.07960
O          O       0.00000   0.80350   0.72390
O          O       0.00000   0.92040   0.19650
O          O       0.00000   0.19650   0.92040
O          O       1.00000   0.07960   0.27610
O          O       1.00000   0.72390   0.80350
O          O       0.00000   0.80350   0.07960
O          O       0.00000   0.92040   0.72390
O          O       0.00000   0.27610   0.19650
O          O       0.73610   0.66590   0.91350
O          O       0.73610   0.24760   0.33410
O          O       0.73610   0.08650   0.75240
O          O       0.73610   0.33410   0.08650
O          O       0.73610   0.75240   0.66590
O          O       0.73610   0.91350   0.24760
O          O       0.73610   0.24760   0.91350
O          O       0.73610   0.08650   0.33410
O          O       0.73610   0.66590   0.75240
O          O       0.73610   0.75240   0.08650
O          O       0.73610   0.91350   0.66590
O          O       0.73610   0.33410   0.24760
O          O       0.26390   0.33410   0.08650
O          O       0.26390   0.75240   0.66590
O          O       0.26390   0.91350   0.24760
O          O       0.26390   0.66590   0.91350
O          O       0.26390   0.24760   0.33410
O          O       0.26390   0.08650   0.75240
O          O       0.26390   0.75240   0.08650
O          O       0.26390   0.91350   0.66590
O          O       0.26390   0.33410   0.24760
O          O       0.26390   0.24760   0.91350
O          O       0.26390   0.08650   0.33410
O          O       0.26390   0.66590   0.75240
O          O       0.00000   0.61460   0.92010
O          O       0.00000   0.30550   0.38540
O          O       0.00000   0.07990   0.69450
O          O       0.00000   0.38540   0.07990
O          O       0.00000   0.69450   0.61460
O          O       0.00000   0.92010   0.30550
O          O       0.00000   0.30550   0.92010
O          O       0.00000   0.07990   0.38540
O          O       0.00000   0.61460   0.69450
O          O       0.00000   0.69450   0.07990
O          O       0.00000   0.92010   0.61460
O          O       0.00000   0.38540   0.30550
O          O       0.67410   0.59630   0.93580
O          O       0.67410   0.33950   0.40370
O          O       0.67410   0.06420   0.66050
O          O       0.67410   0.40370   0.06420
O          O       0.67410   0.66050   0.59630
O          O       0.67410   0.93580   0.33950
O          O       0.67410   0.33950   0.93580
O          O       0.67410   0.06420   0.40370
O          O       0.67410   0.59630   0.66050
O          O       0.67410   0.66050   0.06420
O          O       0.67410   0.93580   0.59630
O          O       0.67410   0.40370   0.33950
O          O       0.32590   0.40370   0.06420
O          O       0.32590   0.66050   0.59630
O          O       0.32590   0.93580   0.33950
O          O       0.32590   0.59630   0.93580
O          O       0.32590   0.33950   0.40370
O          O       0.32590   0.06420   0.66050
O          O       0.32590   0.66050   0.06420
O          O       0.32590   0.93580   0.59630
O          O       0.32590   0.40370   0.33950
O          O       0.32590   0.33950   0.93580
O          O       0.32590   0.06420   0.40370
O          O       0.32590   0.59630   0.66050
O          O       0.77560   0.57220   0.84590
O          O       0.77560   0.27370   0.42780
O          O       0.77560   0.15410   0.72630
O          O       0.77560   0.42780   0.15410
O          O       0.77560   0.72630   0.57220
O          O       0.77560   0.84590   0.27370
O          O       0.77560   0.27370   0.84590
O          O       0.77560   0.15410   0.42780
O          O       0.77560   0.57220   0.72630
O          O       0.77560   0.72630   0.15410
O          O       0.77560   0.84590   0.57220
O          O       0.77560   0.42780   0.27370
O          O       0.22440   0.42780   0.15410
O          O       0.22440   0.72630   0.57220
O          O       0.22440   0.84590   0.27370
O          O       0.22440   0.57220   0.84590
O          O       0.22440   0.27370   0.42780
O          O       0.22440   0.15410   0.72630
O          O       0.22440   0.72630   0.15410
O          O       0.22440   0.84590   0.57220
O          O       0.22440   0.42780   0.27370
O          O       0.22440   0.27370   0.84590
O          O       0.22440   0.15410   0.42780
O          O       0.22440   0.57220   0.72630
O          O       0.50000   0.58170   0.00000
O          O       0.50000   0.41830   0.41830
O          O       0.50000   0.00000   0.58170
O          O       0.50000   0.41830   0.00000
O          O       0.50000   0.58170   0.58170
O          O       0.50000   0.00000   0.41830
O          O       0.50000   0.51290   0.90550
O          O       0.50000   0.39260   0.48710
O          O       0.50000   0.09450   0.60740
O          O       0.50000   0.48710   0.09450
O          O       0.50000   0.60740   0.51290
O          O       0.50000   0.90550   0.39260
O          O       0.50000   0.39260   0.90550
O          O       0.50000   0.09450   0.48710
O          O       0.50000   0.51290   0.60740
O          O       0.50000   0.60740   0.09450
O          O       0.50000   0.90550   0.51290
O          O       0.50000   0.48710   0.39260
O          O       0.50000   0.41840   0.83680
O          O       0.50000   0.41840   0.58160
O          O       0.50000   0.16320   0.58160
O          O       0.50000   0.58160   0.16320
O          O       0.50000   0.58160   0.41840
O          O       0.50000   0.83680   0.41840
O          O       0.67400   0.48240   0.82200
O          O       0.67400   0.33960   0.51760
O          O       0.67400   0.17800   0.66040
O          O       0.67400   0.51760   0.17800
O          O       0.67400   0.66040   0.48240
O          O       0.67400   0.82200   0.33960
O          O       0.67400   0.33960   0.82200
O          O       0.67400   0.17800   0.51760
O          O       0.67400   0.48240   0.66040
O          O       0.67400   0.66040   0.17800
O          O       0.67400   0.82200   0.48240
O          O       0.67400   0.51760   0.33960
O          O       0.32600   0.51760   0.17800
O          O       0.32600   0.66040   0.48240
O          O       0.32600   0.82200   0.33960
O          O       0.32600   0.48240   0.82200
O          O       0.32600   0.33960   0.51760
O          O       0.32600   0.17800   0.66040
O          O       0.32600   0.66040   0.17800
O          O       0.32600   0.82200   0.48240
O          O       0.32600   0.51760   0.33960
O          O       0.32600   0.33960   0.82200
O          O       0.32600   0.17800   0.51760
O          O       0.32600   0.48240   0.66040
O          O       0.73730   0.50460   0.75230
O          O       0.73730   0.24770   0.49540
O          O       0.73730   0.24770   0.75230
O          O       0.73730   0.49540   0.24770
O          O       0.73730   0.75230   0.50460
O          O       0.73730   0.75230   0.24770
O          O       0.26270   0.49540   0.24770
O          O       0.26270   0.75230   0.50460
O          O       0.26270   0.75230   0.24770
O          O       0.26270   0.50460   0.75230
O          O       0.26270   0.24770   0.49540
O          O       0.26270   0.24770   0.75230
O          O       0.00000   0.49810   0.80400
O          O       1.00000   0.30590   0.50190
O          O       0.00000   0.19600   0.69410
O          O       0.00000   0.50190   0.19600
O          O       0.00000   0.69410   0.49810
O          O       0.00000   0.80400   0.30590
O          O       0.00000   0.30590   0.80400
O          O       0.00000   0.19600   0.50190
O          O       0.00000   0.49810   0.69410
O          O       1.00000   0.69410   0.19600
O          O       0.00000   0.80400   0.49810
O          O       0.00000   0.50190   0.30590
