data_crystal

_cell_length_a    18.24600
_cell_length_b    18.24600
_cell_length_c    20.55700
_cell_angle_alpha 90.00000
_cell_angle_beta  90.00000
_cell_angle_gamma 90.00000

_space_group_name_Hall 'P 1'
_space_group_name_H-M_alt 'P 1'

loop_
_symmetry_equiv_pos_as_xyz
 'x,y,z'

loop_
_atom_site_label
_atom_site_type_symbol
_atom_site_fract_x
_atom_site_fract_y
_atom_site_fract_z
Si         Si      0.13590   0.74440   0.11840
Si         Si      0.75560   0.63590   0.61840
Si         Si      0.86410   0.25560   0.11840
Si         Si      0.24440   0.36410   0.61840
Si         Si      0.36410   0.24440   0.61840
Si         Si      0.74440   0.13590   0.11840
Si         Si      0.63590   0.75560   0.61840
Si         Si      0.25560   0.86410   0.11840
Si         Si      0.86410   0.25560   0.88160
Si         Si      0.24440   0.36410   0.38160
Si         Si      0.13590   0.74440   0.88160
Si         Si      0.75560   0.63590   0.38160
Si         Si      0.63590   0.75560   0.38160
Si         Si      0.25560   0.86410   0.88160
Si         Si      0.36410   0.24440   0.38160
Si         Si      0.74440   0.13590   0.88160
Si         Si      0.13440   0.74850   0.26890
Si         Si      0.75150   0.63440   0.76890
Si         Si      0.86560   0.25150   0.26890
Si         Si      0.24850   0.36560   0.76890
Si         Si      0.36560   0.24850   0.76890
Si         Si      0.74850   0.13440   0.26890
Si         Si      0.63440   0.75150   0.76890
Si         Si      0.25150   0.86560   0.26890
Si         Si      0.86560   0.25150   0.73110
Si         Si      0.24850   0.36560   0.23110
Si         Si      0.13440   0.74850   0.73110
Si         Si      0.75150   0.63440   0.23110
Si         Si      0.63440   0.75150   0.23110
Si         Si      0.25150   0.86560   0.73110
Si         Si      0.36560   0.24850   0.23110
Si         Si      0.74850   0.13440   0.73110
Si         Si      0.02710   0.22080   0.07420
Si         Si      0.27920   0.52710   0.57420
Si         Si      0.97290   0.77920   0.07420
Si         Si      0.72080   0.47290   0.57420
Si         Si      0.47290   0.72080   0.57420
Si         Si      0.22080   0.02710   0.07420
Si         Si      0.52710   0.27920   0.57420
Si         Si      0.77920   0.97290   0.07420
Si         Si      0.97290   0.77920   0.92580
Si         Si      0.72080   0.47290   0.42580
Si         Si      0.02710   0.22080   0.92580
Si         Si      0.27920   0.52710   0.42580
Si         Si      0.52710   0.27920   0.42580
Si         Si      0.77920   0.97290   0.92580
Si         Si      0.47290   0.72080   0.42580
Si         Si      0.22080   0.02710   0.92580
Si         Si      0.13160   0.25080   0.18770
Si         Si      0.24920   0.63160   0.68770
Si         Si      0.86840   0.74920   0.18770
Si         Si      0.75080   0.36840   0.68770
Si         Si      0.36840   0.75080   0.68770
Si         Si      0.25080   0.13160   0.18770
Si         Si      0.63160   0.24920   0.68770
Si         Si      0.74920   0.86840   0.18770
Si         Si      0.86840   0.74920   0.81230
Si         Si      0.75080   0.36840   0.31230
Si         Si      0.13160   0.25080   0.81230
Si         Si      0.24920   0.63160   0.31230
Si         Si      0.63160   0.24920   0.31230
Si         Si      0.74920   0.86840   0.81230
Si         Si      0.36840   0.75080   0.31230
Si         Si      0.25080   0.13160   0.81230
Si         Si      0.02990   0.22320   0.30900
Si         Si      0.27680   0.52990   0.80900
Si         Si      0.97010   0.77680   0.30900
Si         Si      0.72320   0.47010   0.80900
Si         Si      0.47010   0.72320   0.80900
Si         Si      0.22320   0.02990   0.30900
Si         Si      0.52990   0.27680   0.80900
Si         Si      0.77680   0.97010   0.30900
Si         Si      0.97010   0.77680   0.69100
Si         Si      0.72320   0.47010   0.19100
Si         Si      0.02990   0.22320   0.69100
Si         Si      0.27680   0.52990   0.19100
Si         Si      0.52990   0.27680   0.19100
Si         Si      0.77680   0.97010   0.69100
Si         Si      0.47010   0.72320   0.19100
Si         Si      0.22320   0.02990   0.69100
Si         Si      0.12950   0.24850   0.42610
Si         Si      0.25150   0.62950   0.92610
Si         Si      0.87050   0.75150   0.42610
Si         Si      0.74850   0.37050   0.92610
Si         Si      0.37050   0.74850   0.92610
Si         Si      0.24850   0.12950   0.42610
Si         Si      0.62950   0.25150   0.92610
Si         Si      0.75150   0.87050   0.42610
Si         Si      0.87050   0.75150   0.57390
Si         Si      0.74850   0.37050   0.07390
Si         Si      0.12950   0.24850   0.57390
Si         Si      0.25150   0.62950   0.07390
Si         Si      0.62950   0.25150   0.07390
Si         Si      0.75150   0.87050   0.57390
Si         Si      0.37050   0.74850   0.07390
Si         Si      0.24850   0.12950   0.57390
Si         Si      0.06220   0.06220   0.12320
Si         Si      0.43780   0.56220   0.62320
Si         Si      0.93780   0.93780   0.12320
Si         Si      0.56220   0.43780   0.62320
Si         Si      0.93780   0.93780   0.87680
Si         Si      0.56220   0.43780   0.37680
Si         Si      0.06220   0.06220   0.87680
Si         Si      0.43780   0.56220   0.37680
Si         Si      0.06220   0.06220   0.27240
Si         Si      0.43780   0.56220   0.77240
Si         Si      0.93780   0.93780   0.27240
Si         Si      0.56220   0.43780   0.77240
Si         Si      0.93780   0.93780   0.72760
Si         Si      0.56220   0.43780   0.22760
Si         Si      0.06220   0.06220   0.72760
Si         Si      0.43780   0.56220   0.22760
O          O       0.12870   0.72290   0.19410
O          O       0.77710   0.62870   0.69410
O          O       0.87130   0.27710   0.19410
O          O       0.22290   0.37130   0.69410
O          O       0.37130   0.22290   0.69410
O          O       0.72290   0.12870   0.19410
O          O       0.62870   0.77710   0.69410
O          O       0.27710   0.87130   0.19410
O          O       0.87130   0.27710   0.80590
O          O       0.22290   0.37130   0.30590
O          O       0.12870   0.72290   0.80590
O          O       0.77710   0.62870   0.30590
O          O       0.62870   0.77710   0.30590
O          O       0.27710   0.87130   0.80590
O          O       0.37130   0.22290   0.30590
O          O       0.72290   0.12870   0.80590
O          O       0.05530   0.75150   0.08730
O          O       0.74850   0.55530   0.58730
O          O       0.94470   0.24850   0.08730
O          O       0.25150   0.44470   0.58730
O          O       0.44470   0.25150   0.58730
O          O       0.75150   0.05530   0.08730
O          O       0.55530   0.74850   0.58730
O          O       0.24850   0.94470   0.08730
O          O       0.94470   0.24850   0.91270
O          O       0.25150   0.44470   0.41270
O          O       0.05530   0.75150   0.91270
O          O       0.74850   0.55530   0.41270
O          O       0.55530   0.74850   0.41270
O          O       0.24850   0.94470   0.91270
O          O       0.44470   0.25150   0.41270
O          O       0.75150   0.05530   0.91270
O          O       0.18000   0.68050   0.08110
O          O       0.81950   0.68000   0.58110
O          O       0.82000   0.31950   0.08110
O          O       0.18050   0.32000   0.58110
O          O       0.32000   0.18050   0.58110
O          O       0.68050   0.18000   0.08110
O          O       0.68000   0.81950   0.58110
O          O       0.31950   0.82000   0.08110
O          O       0.82000   0.31950   0.91890
O          O       0.18050   0.32000   0.41890
O          O       0.18000   0.68050   0.91890
O          O       0.81950   0.68000   0.41890
O          O       0.68000   0.81950   0.41890
O          O       0.31950   0.82000   0.91890
O          O       0.32000   0.18050   0.41890
O          O       0.68050   0.18000   0.91890
O          O       0.17920   0.82080   0.11130
O          O       0.67920   0.67920   0.61130
O          O       0.82080   0.17920   0.11130
O          O       0.32080   0.32080   0.61130
O          O       0.82080   0.17920   0.88870
O          O       0.32080   0.32080   0.38870
O          O       0.17920   0.82080   0.88870
O          O       0.67920   0.67920   0.38870
O          O       0.05380   0.75070   0.30050
O          O       0.74930   0.55380   0.80050
O          O       0.94620   0.24930   0.30050
O          O       0.25070   0.44620   0.80050
O          O       0.44620   0.25070   0.80050
O          O       0.75070   0.05380   0.30050
O          O       0.55380   0.74930   0.80050
O          O       0.24930   0.94620   0.30050
O          O       0.94620   0.24930   0.69950
O          O       0.25070   0.44620   0.19950
O          O       0.05380   0.75070   0.69950
O          O       0.74930   0.55380   0.19950
O          O       0.55380   0.74930   0.19950
O          O       0.24930   0.94620   0.69950
O          O       0.44620   0.25070   0.19950
O          O       0.75070   0.05380   0.69950
O          O       0.18440   0.69130   0.30880
O          O       0.80870   0.68440   0.80880
O          O       0.81560   0.30870   0.30880
O          O       0.19130   0.31560   0.80880
O          O       0.31560   0.19130   0.80880
O          O       0.69130   0.18440   0.30880
O          O       0.68440   0.80870   0.80880
O          O       0.30870   0.81560   0.30880
O          O       0.81560   0.30870   0.69120
O          O       0.19130   0.31560   0.19120
O          O       0.18440   0.69130   0.69120
O          O       0.80870   0.68440   0.19120
O          O       0.68440   0.80870   0.19120
O          O       0.30870   0.81560   0.69120
O          O       0.31560   0.19130   0.19120
O          O       0.69130   0.18440   0.69120
O          O       0.17160   0.82840   0.27230
O          O       0.67160   0.67160   0.77230
O          O       0.82840   0.17160   0.27230
O          O       0.32840   0.32840   0.77230
O          O       0.82840   0.17160   0.72770
O          O       0.32840   0.32840   0.22770
O          O       0.17160   0.82840   0.72770
O          O       0.67160   0.67160   0.22770
O          O       0.08310   0.26120   0.12300
O          O       0.23880   0.58310   0.62300
O          O       0.91690   0.73880   0.12300
O          O       0.76120   0.41690   0.62300
O          O       0.41690   0.76120   0.62300
O          O       0.26120   0.08310   0.12300
O          O       0.58310   0.23880   0.62300
O          O       0.73880   0.91690   0.12300
O          O       0.91690   0.73880   0.87700
O          O       0.76120   0.41690   0.37700
O          O       0.08310   0.26120   0.87700
O          O       0.23880   0.58310   0.37700
O          O       0.58310   0.23880   0.37700
O          O       0.73880   0.91690   0.87700
O          O       0.41690   0.76120   0.37700
O          O       0.26120   0.08310   0.87700
O          O       0.04930   0.23840   0.00000
O          O       0.26160   0.54930   0.50000
O          O       0.95070   0.76160   0.00000
O          O       0.73840   0.45070   0.50000
O          O       0.45070   0.73840   0.50000
O          O       0.23840   0.04930   0.00000
O          O       0.54930   0.26160   0.50000
O          O       0.76160   0.95070   0.00000
O          O       0.03180   0.13370   0.08620
O          O       0.36630   0.53180   0.58620
O          O       0.96820   0.86630   0.08620
O          O       0.63370   0.46820   0.58620
O          O       0.46820   0.63370   0.58620
O          O       0.13370   0.03180   0.08620
O          O       0.53180   0.36630   0.58620
O          O       0.86630   0.96820   0.08620
O          O       0.96820   0.86630   0.91380
O          O       0.63370   0.46820   0.41380
O          O       0.03180   0.13370   0.91380
O          O       0.36630   0.53180   0.41380
O          O       0.53180   0.36630   0.41380
O          O       0.86630   0.96820   0.91380
O          O       0.46820   0.63370   0.41380
O          O       0.13370   0.03180   0.91380
O          O       0.17280   0.17280   0.18590
O          O       0.32720   0.67280   0.68590
O          O       0.82720   0.82720   0.18590
O          O       0.67280   0.32720   0.68590
O          O       0.82720   0.82720   0.81410
O          O       0.67280   0.32720   0.31410
O          O       0.17280   0.17280   0.81410
O          O       0.32720   0.67280   0.31410
O          O       0.07890   0.25530   0.25040
O          O       0.24470   0.57890   0.75040
O          O       0.92110   0.74470   0.25040
O          O       0.75530   0.42110   0.75040
O          O       0.42110   0.75530   0.75040
O          O       0.25530   0.07890   0.25040
O          O       0.57890   0.24470   0.75040
O          O       0.74470   0.92110   0.25040
O          O       0.92110   0.74470   0.74960
O          O       0.75530   0.42110   0.24960
O          O       0.07890   0.25530   0.74960
O          O       0.24470   0.57890   0.24960
O          O       0.57890   0.24470   0.24960
O          O       0.74470   0.92110   0.74960
O          O       0.42110   0.75530   0.24960
O          O       0.25530   0.07890   0.74960
O          O       0.03330   0.13500   0.30850
O          O       0.36500   0.53330   0.80850
O          O       0.96670   0.86500   0.30850
O          O       0.63500   0.46670   0.80850
O          O       0.46670   0.63500   0.80850
O          O       0.13500   0.03330   0.30850
O          O       0.53330   0.36500   0.80850
O          O       0.86500   0.96670   0.30850
O          O       0.96670   0.86500   0.69150
O          O       0.63500   0.46670   0.19150
O          O       0.03330   0.13500   0.69150
O          O       0.36500   0.53330   0.19150
O          O       0.53330   0.36500   0.19150
O          O       0.86500   0.96670   0.69150
O          O       0.46670   0.63500   0.19150
O          O       0.13500   0.03330   0.69150
O          O       0.06090   0.25390   0.37710
O          O       0.24610   0.56090   0.87710
O          O       0.93910   0.74610   0.37710
O          O       0.75390   0.43910   0.87710
O          O       0.43910   0.75390   0.87710
O          O       0.25390   0.06090   0.37710
O          O       0.56090   0.24610   0.87710
O          O       0.74610   0.93910   0.37710
O          O       0.93910   0.74610   0.62290
O          O       0.75390   0.43910   0.12290
O          O       0.06090   0.25390   0.62290
O          O       0.24610   0.56090   0.12290
O          O       0.56090   0.24610   0.12290
O          O       0.74610   0.93910   0.62290
O          O       0.43910   0.75390   0.12290
O          O       0.25390   0.06090   0.62290
O          O       0.00000   0.00000   0.12100
O          O       0.50000   0.50000   0.62100
O          O       0.00000   0.00000   0.87900
O          O       0.50000   0.50000   0.37900
O          O       0.08130   0.08130   0.19780
O          O       0.41870   0.58130   0.69780
O          O       0.91870   0.91870   0.19780
O          O       0.58130   0.41870   0.69780
O          O       0.91870   0.91870   0.80220
O          O       0.58130   0.41870   0.30220
O          O       0.08130   0.08130   0.80220
O          O       0.41870   0.58130   0.30220
O          O       0.00000   0.00000   0.27540
O          O       0.50000   0.50000   0.77540
O          O       0.00000   0.00000   0.72460
O          O       0.50000   0.50000   0.22460
O          O       0.17650   0.17650   0.40870
O          O       0.32350   0.67650   0.90870
O          O       0.82350   0.82350   0.40870
O          O       0.67650   0.32350   0.90870
O          O       0.82350   0.82350   0.59130
O          O       0.67650   0.32350   0.09130
O          O       0.17650   0.17650   0.59130
O          O       0.32350   0.67650   0.09130
O          O       0.10060   0.24280   0.50000
O          O       0.25720   0.60060   0.00000
O          O       0.89940   0.75720   0.50000
O          O       0.74280   0.39940   0.00000
O          O       0.39940   0.74280   0.00000
O          O       0.24280   0.10060   0.50000
O          O       0.60060   0.25720   0.00000
O          O       0.75720   0.89940   0.50000
