data_crystal

_cell_length_a    11.90405
_cell_length_b    11.90405
_cell_length_c    11.90405
_cell_angle_alpha 92.26975
_cell_angle_beta  92.26975
_cell_angle_gamma 92.26975

_space_group_name_Hall 'P 1'
_space_group_name_H-M_alt 'P 1'

loop_
_symmetry_equiv_pos_as_xyz
 'x,y,z'

loop_
_atom_site_label
_atom_site_type_symbol
_atom_site_fract_x
_atom_site_fract_y
_atom_site_fract_z
O          O       0.38070   0.38060   0.09490
O          O       0.09490   0.38070   0.38060
O          O       0.38060   0.09490   0.38070
O          O       0.61930   0.61940   0.90510
O          O       0.90510   0.61930   0.61940
O          O       0.61940   0.90510   0.61930
O          O       0.20160   0.43920   0.20160
O          O       0.20160   0.20160   0.43920
O          O       0.43920   0.20160   0.20160
O          O       0.79840   0.56080   0.79840
O          O       0.79840   0.79840   0.56080
O          O       0.56080   0.79840   0.79840
O          O       0.29850   0.57910   0.06620
O          O       0.06620   0.29850   0.57910
O          O       0.57910   0.06620   0.29850
O          O       0.06620   0.57910   0.29850
O          O       0.57910   0.29850   0.06620
O          O       0.29850   0.06620   0.57910
O          O       0.70150   0.42090   0.93380
O          O       0.93380   0.70150   0.42090
O          O       0.42090   0.93380   0.70150
O          O       0.93380   0.42090   0.70150
O          O       0.42090   0.70150   0.93380
O          O       0.70150   0.93380   0.42090
O          O       0.18740   0.39740   0.98280
O          O       0.98280   0.18740   0.39740
O          O       0.39740   0.98280   0.18740
O          O       0.98280   0.39740   0.18740
O          O       0.39740   0.18740   0.98280
O          O       0.18740   0.98280   0.39740
O          O       0.81260   0.60260   0.01720
O          O       0.01720   0.81260   0.60260
O          O       0.60260   0.01720   0.81260
O          O       0.01720   0.60260   0.81260
O          O       0.60260   0.81260   0.01720
O          O       0.81260   0.01720   0.60260
O          O       0.17710   0.17710   0.95420
O          O       0.95420   0.17710   0.17710
O          O       0.17710   0.95420   0.17710
O          O       0.82290   0.82290   0.04580
O          O       0.04580   0.82290   0.82290
O          O       0.82290   0.04580   0.82290
O          O       0.08910   0.30250   0.79950
O          O       0.79950   0.08910   0.30250
O          O       0.30250   0.79950   0.08910
O          O       0.79950   0.30250   0.08910
O          O       0.30250   0.08910   0.79950
O          O       0.08910   0.79950   0.30250
O          O       0.91090   0.69750   0.20050
O          O       0.20050   0.91090   0.69750
O          O       0.69750   0.20050   0.91090
O          O       0.20050   0.69750   0.91090
O          O       0.69750   0.91090   0.20050
O          O       0.91090   0.20050   0.69750
O          O       0.99360   0.28550   0.99360
O          O       0.99360   0.99360   0.28550
O          O       0.28550   0.99360   0.99360
O          O       0.00640   0.71450   0.00640
O          O       0.00640   0.00640   0.71450
O          O       0.71450   0.00640   0.00640
Si         Si      0.26690   0.44900   0.08630
Si         Si      0.08630   0.26690   0.44900
Si         Si      0.44900   0.08630   0.26690
Si         Si      0.08630   0.44900   0.26690
Si         Si      0.44900   0.26690   0.08630
Si         Si      0.26690   0.08630   0.44900
Si         Si      0.73310   0.55100   0.91370
Si         Si      0.91370   0.73310   0.55100
Si         Si      0.55100   0.91370   0.73310
Si         Si      0.91370   0.55100   0.73310
Si         Si      0.55100   0.73310   0.91370
Si         Si      0.73310   0.91370   0.55100
Si         Si      0.11190   0.29060   0.93260
Si         Si      0.93260   0.11190   0.29060
Si         Si      0.29060   0.93260   0.11190
Si         Si      0.93260   0.29060   0.11190
Si         Si      0.29060   0.11190   0.93260
Si         Si      0.11190   0.93260   0.29060
Si         Si      0.88810   0.70940   0.06740
Si         Si      0.06740   0.88810   0.70940
Si         Si      0.70940   0.06740   0.88810
Si         Si      0.06740   0.70940   0.88810
Si         Si      0.70940   0.88810   0.06740
Si         Si      0.88810   0.06740   0.70940
Si         Si      0.00000   0.30560   0.69440
Si         Si      0.69440   1.00000   0.30560
Si         Si      0.30560   0.69440   1.00000
Si         Si      0.69440   0.30560   0.00000
Si         Si      0.30560   0.00000   0.69440
Si         Si      0.00000   0.69440   0.30560
