data_crystal

_cell_length_a    7.24900
_cell_length_b    9.62900
_cell_length_c    15.94140
_cell_angle_alpha 72.42149
_cell_angle_beta  90.13590
_cell_angle_gamma 90.45000

_space_group_name_Hall 'P 1'
_space_group_name_H-M_alt 'P 1'

loop_
_symmetry_equiv_pos_as_xyz
 'x,y,z'

loop_
_atom_site_label
_atom_site_type_symbol
_atom_site_fract_x
_atom_site_fract_y
_atom_site_fract_z
O          O       0.13970   0.12820   0.28820
O          O       0.86030   0.58360   0.28820
O          O       0.86030   0.87180   0.71180
O          O       0.13970   0.41640   0.71180
O          O       0.23990   0.86110   0.37220
O          O       0.76010   0.76670   0.37220
O          O       0.76010   0.13890   0.62780
O          O       0.23990   0.23330   0.62780
O          O       0.45710   0.08170   0.37120
O          O       0.54290   0.54710   0.37120
O          O       0.54290   0.91830   0.62880
O          O       0.45710   0.45290   0.62880
O          O       0.41090   0.00550   0.22700
O          O       0.58910   0.76750   0.22700
O          O       0.58910   0.99450   0.77300
O          O       0.41090   0.23250   0.77300
O          O       0.00000   0.61100   0.77800
O          O       0.00000   0.38900   0.22200
O          O       0.20770   0.82440   0.68100
O          O       0.79230   0.49460   0.68100
O          O       0.79230   0.17560   0.31900
O          O       0.20770   0.50540   0.31900
O          O       0.10560   0.82240   0.83920
O          O       0.89440   0.33840   0.83920
O          O       0.89440   0.17760   0.16080
O          O       0.10560   0.66160   0.16080
O          O       0.91930   0.15850   0.00000
O          O       0.08070   0.84150   0.00000
O          O       0.00000   0.93240   0.13520
O          O       0.00000   0.06760   0.86480
O          O       0.65680   0.01660   0.10520
O          O       0.34320   0.87820   0.10520
O          O       0.34320   0.98340   0.89480
O          O       0.65680   0.12180   0.89480
O          O       0.34500   0.78390   0.53800
O          O       0.65500   0.67810   0.53800
O          O       0.65500   0.21610   0.46200
O          O       0.34500   0.32190   0.46200
O          O       0.25510   0.04640   0.53780
O          O       0.74490   0.41580   0.53780
O          O       0.74490   0.95360   0.46220
O          O       0.25510   0.58420   0.46220
O          O       0.00000   0.75080   0.49840
O          O       0.00000   0.24920   0.50160
Si         Si      0.86780   0.07170   0.10060
Si         Si      0.13220   0.82770   0.10060
Si         Si      0.13220   0.92830   0.89940
Si         Si      0.86780   0.17230   0.89940
Si         Si      0.31230   0.01950   0.31440
Si         Si      0.68770   0.66610   0.31440
Si         Si      0.68770   0.98050   0.68560
Si         Si      0.31230   0.33390   0.68560
Si         Si      0.04330   0.78300   0.75200
Si         Si      0.95670   0.46500   0.75200
Si         Si      0.95670   0.21700   0.24800
Si         Si      0.04330   0.53500   0.24800
Si         Si      0.33790   0.89330   0.59700
Si         Si      0.66210   0.50970   0.59700
Si         Si      0.66210   0.10670   0.40300
Si         Si      0.33790   0.49030   0.40300
Si         Si      0.21040   0.74460   0.46780
Si         Si      0.78960   0.78760   0.46780
Si         Si      0.78960   0.25540   0.53220
Si         Si      0.21040   0.21240   0.53220
Si         Si      0.50000   0.91670   0.16660
Si         Si      0.50000   0.08330   0.83340
