data_crystal

_cell_length_a    14.09476
_cell_length_b    14.09476
_cell_length_c    14.09476
_cell_angle_alpha 60.00000
_cell_angle_beta  60.00000
_cell_angle_gamma 60.00000

_space_group_name_Hall 'P 1'
_space_group_name_H-M_alt 'P 1'

loop_
_symmetry_equiv_pos_as_xyz
 'x,y,z'

loop_
_atom_site_label
_atom_site_type_symbol
_atom_site_fract_x
_atom_site_fract_y
_atom_site_fract_z
O          O       0.19820   0.70480   0.70480
O          O       0.70480   0.70480   0.19820
O          O       0.70480   0.19820   0.70480
O          O       0.29520   0.80180   0.10780
O          O       0.29520   0.29520   0.10780
O          O       0.80180   0.29520   0.10780
O          O       0.29520   0.10780   0.80180
O          O       0.80180   0.10780   0.29520
O          O       0.29520   0.10780   0.29520
O          O       0.89220   0.70480   0.70480
O          O       0.89220   0.19820   0.70480
O          O       0.89220   0.70480   0.19820
O          O       0.80180   0.29520   0.29520
O          O       0.29520   0.29520   0.80180
O          O       0.29520   0.80180   0.29520
O          O       0.70480   0.19820   0.89220
O          O       0.70480   0.70480   0.89220
O          O       0.19820   0.70480   0.89220
O          O       0.70480   0.89220   0.19820
O          O       0.19820   0.89220   0.70480
O          O       0.70480   0.89220   0.70480
O          O       0.10780   0.29520   0.29520
O          O       0.10780   0.80180   0.29520
O          O       0.10780   0.29520   0.80180
O          O       0.31380   0.50000   0.68620
O          O       0.50000   0.68620   0.31380
O          O       0.68620   0.31380   0.50000
O          O       0.50000   0.68620   1.00000
O          O       0.31380   0.50000   0.00000
O          O       0.68620   0.31380   0.00000
O          O       0.31380   0.00000   0.68620
O          O       0.68620   0.00000   0.50000
O          O       0.50000   0.00000   0.31380
O          O       0.00000   0.68620   0.50000
O          O       0.00000   0.31380   0.68620
O          O       0.00000   0.50000   0.31380
O          O       0.31380   0.68620   0.50000
O          O       0.50000   0.31380   0.68620
O          O       0.68620   0.50000   0.31380
O          O       0.50000   0.00000   0.68620
O          O       0.31380   0.00000   0.50000
O          O       0.68620   0.00000   0.31380
O          O       0.31380   0.68620   0.00000
O          O       0.68620   0.50000   0.00000
O          O       0.50000   0.31380   0.00000
O          O       0.00000   0.50000   0.68620
O          O       0.00000   0.68620   0.31380
O          O       0.00000   0.31380   0.50000
O          O       0.12210   0.62790   0.62790
O          O       0.62790   0.62790   0.12210
O          O       0.62790   0.12210   0.62790
O          O       0.37210   0.87790   0.87790
O          O       0.37210   0.37210   0.87790
O          O       0.87790   0.37210   0.87790
O          O       0.87790   0.87790   0.37210
O          O       0.37210   0.87790   0.37210
O          O       0.12210   0.12210   0.62790
O          O       0.12210   0.62790   0.12210
O          O       0.87790   0.37210   0.37210
O          O       0.62790   0.12210   0.12210
O          O       0.82840   0.82840   0.82840
O          O       0.17160   0.17160   0.98520
O          O       0.17160   0.98520   0.17160
O          O       0.01480   0.82840   0.82840
O          O       0.17160   0.17160   0.17160
O          O       0.82840   0.82840   0.01480
O          O       0.82840   0.01480   0.82840
O          O       0.98520   0.17160   0.17160
Si         Si      0.23520   0.62880   0.62880
Si         Si      0.62880   0.62880   0.23520
Si         Si      0.62880   0.23520   0.62880
Si         Si      0.37120   0.76480   0.99280
Si         Si      0.37120   0.37120   0.99280
Si         Si      0.76480   0.37120   0.99280
Si         Si      0.37120   0.99280   0.76480
Si         Si      0.76480   0.99280   0.37120
Si         Si      0.37120   0.99280   0.37120
Si         Si      0.00720   0.62880   0.62880
Si         Si      0.00720   0.23520   0.62880
Si         Si      0.00720   0.62880   0.23520
Si         Si      0.76480   0.37120   0.37120
Si         Si      0.37120   0.37120   0.76480
Si         Si      0.37120   0.76480   0.37120
Si         Si      0.62880   0.23520   0.00720
Si         Si      0.62880   0.62880   0.00720
Si         Si      0.23520   0.62880   0.00720
Si         Si      0.62880   0.00720   0.23520
Si         Si      0.23520   0.00720   0.62880
Si         Si      0.62880   0.00720   0.62880
Si         Si      0.99280   0.37120   0.37120
Si         Si      0.99280   0.76480   0.37120
Si         Si      0.99280   0.37120   0.76480
Si         Si      0.78190   0.78190   0.78190
Si         Si      0.21810   0.21810   0.84570
Si         Si      0.21810   0.84570   0.21810
Si         Si      0.15430   0.78190   0.78190
Si         Si      0.21810   0.21810   0.21810
Si         Si      0.78190   0.78190   0.15430
Si         Si      0.78190   0.15430   0.78190
Si         Si      0.84570   0.21810   0.21810
Si         Si      0.87500   0.87500   0.87500
Si         Si      0.12500   0.12500   0.12500
