data_crystal

_cell_length_a    5.25600
_cell_length_b    11.38400
_cell_length_c    22.03100
_cell_angle_alpha 90.00000
_cell_angle_beta  90.00000
_cell_angle_gamma 90.00000

_space_group_name_Hall 'P 1'
_space_group_name_H-M_alt 'P 1'

loop_
_symmetry_equiv_pos_as_xyz
 'x,y,z'

loop_
_atom_site_label
_atom_site_type_symbol
_atom_site_fract_x
_atom_site_fract_y
_atom_site_fract_z
Si         Si      0.00000   0.01010   0.79170
Si         Si      0.00000   0.01010   0.20830
Si         Si      0.50000   0.98990   0.29170
Si         Si      0.50000   0.98990   0.70830
Si         Si      0.00000   0.27630   0.82670
Si         Si      0.00000   0.27630   0.17330
Si         Si      0.50000   0.72370   0.32670
Si         Si      0.50000   0.72370   0.67330
Si         Si      0.00000   0.77410   0.86720
Si         Si      0.00000   0.77410   0.13280
Si         Si      0.50000   0.22590   0.36720
Si         Si      0.50000   0.22590   0.63280
Si         Si      0.50000   0.64940   0.81360
Si         Si      0.50000   0.64940   0.18640
Si         Si      0.00000   0.35060   0.31360
Si         Si      0.00000   0.35060   0.68640
Si         Si      0.50000   0.40160   0.87200
Si         Si      0.50000   0.40160   0.12800
Si         Si      0.00000   0.59840   0.37200
Si         Si      0.00000   0.59840   0.62800
Si         Si      0.50000   0.53290   0.00000
Si         Si      0.00000   0.46710   0.50000
Si         Si      0.00000   0.69590   0.00000
Si         Si      0.50000   0.30410   0.50000
O          O       0.00000   0.13490   0.82610
O          O       0.00000   0.13490   0.17390
O          O       0.50000   0.86510   0.32610
O          O       0.50000   0.86510   0.67390
O          O       0.25000   1.00000   0.75000
O          O       0.75000   1.00000   0.25000
O          O       0.25000   0.00000   0.25000
O          O       0.75000   0.00000   0.75000
O          O       0.00000   0.90620   0.84130
O          O       0.00000   0.90620   0.15870
O          O       0.50000   0.09380   0.34130
O          O       0.50000   0.09380   0.65870
O          O       0.25000   0.32250   0.86150
O          O       0.75000   0.32250   0.13850
O          O       0.25000   0.67750   0.36150
O          O       0.75000   0.67750   0.63850
O          O       0.25000   0.67750   0.63850
O          O       0.75000   0.67750   0.36150
O          O       0.25000   0.32250   0.13850
O          O       0.75000   0.32250   0.86150
O          O       0.00000   0.32500   0.75820
O          O       0.00000   0.32500   0.24180
O          O       0.50000   0.67500   0.25820
O          O       0.50000   0.67500   0.74180
O          O       0.00000   0.77750   0.94030
O          O       0.00000   0.77750   0.05970
O          O       0.50000   0.22250   0.44030
O          O       0.50000   0.22250   0.55970
O          O       0.25000   0.70620   0.84390
O          O       0.75000   0.70620   0.15610
O          O       0.25000   0.29380   0.34390
O          O       0.75000   0.29380   0.65610
O          O       0.25000   0.29380   0.65610
O          O       0.75000   0.29380   0.34390
O          O       0.25000   0.70620   0.15610
O          O       0.75000   0.70620   0.84390
O          O       0.50000   0.50970   0.82490
O          O       0.50000   0.50970   0.17510
O          O       0.00000   0.49030   0.32490
O          O       0.00000   0.49030   0.67510
O          O       0.50000   0.45120   0.94040
O          O       0.50000   0.45120   0.05960
O          O       0.00000   0.54880   0.44040
O          O       0.00000   0.54880   0.55960
O          O       0.75000   0.61440   0.00000
O          O       0.25000   0.61440   0.00000
O          O       0.75000   0.38560   0.50000
O          O       0.25000   0.38560   0.50000
