data_crystal

_cell_length_a    5.25600
_cell_length_b    12.11700
_cell_length_c    13.04349
_cell_angle_alpha 108.90076
_cell_angle_beta  101.62351
_cell_angle_gamma 90.00000

_space_group_name_Hall 'P 1'
_space_group_name_H-M_alt 'P 1'

loop_
_symmetry_equiv_pos_as_xyz
 'x,y,z'

loop_
_atom_site_label
_atom_site_type_symbol
_atom_site_fract_x
_atom_site_fract_y
_atom_site_fract_z
O          O       0.00450   0.13130   0.00900
O          O       0.99550   0.86870   0.99100
O          O       0.84590   0.24210   0.19160
O          O       0.65430   0.75790   0.80840
O          O       0.15410   0.75790   0.80840
O          O       0.34570   0.24210   0.19160
O          O       0.08760   0.04900   0.17520
O          O       0.91240   0.95100   0.82480
O          O       0.33260   0.85760   0.16520
O          O       0.16740   0.14240   0.83480
O          O       0.66740   0.14240   0.83480
O          O       0.83260   0.85760   0.16520
O          O       0.34400   0.57100   0.68800
O          O       0.65600   0.42900   0.31200
O          O       0.31530   0.75950   0.63060
O          O       0.68470   0.24050   0.36940
O          O       0.34340   0.20790   0.68680
O          O       0.65660   0.79210   0.31320
O          O       0.33740   0.98700   0.67480
O          O       0.66260   0.01300   0.32520
O          O       0.00070   0.85150   0.50160
O          O       0.49910   0.14850   0.49840
O          O       0.99930   0.14850   0.49840
O          O       0.50090   0.85150   0.50160
O          O       0.28380   0.34780   0.56760
O          O       0.71620   0.65220   0.43240
O          O       0.00000   0.50000   0.50000
O          O       0.50000   0.50000   0.50000
Si         Si      0.07100   0.16600   0.14200
Si         Si      0.92900   0.83400   0.85800
Si         Si      0.06210   0.90830   0.12420
Si         Si      0.93790   0.09170   0.87580
Si         Si      0.36710   0.71190   0.73420
Si         Si      0.63290   0.28810   0.26580
Si         Si      0.37890   0.11990   0.75780
Si         Si      0.62110   0.88010   0.24220
Si         Si      0.28850   0.86250   0.57700
Si         Si      0.71150   0.13750   0.42300
Si         Si      0.28130   0.21340   0.56260
Si         Si      0.71870   0.78660   0.43740
Si         Si      0.28180   0.47910   0.56360
Si         Si      0.71820   0.52090   0.43640
