data_crystal

_cell_length_a    5.02100
_cell_length_b    8.15100
_cell_length_c    13.97700
_cell_angle_alpha 90.00000
_cell_angle_beta  90.00000
_cell_angle_gamma 90.00000

_space_group_name_Hall 'P 1'
_space_group_name_H-M_alt 'P 1'

loop_
_symmetry_equiv_pos_as_xyz
 'x,y,z'

loop_
_atom_site_label
_atom_site_type_symbol
_atom_site_fract_x
_atom_site_fract_y
_atom_site_fract_z
Si         Si      0.38820   0.31510   0.20000
Si         Si      0.61180   0.68490   0.20000
Si         Si      0.11180   0.81510   0.30000
Si         Si      0.88820   0.18490   0.30000
Si         Si      0.61180   0.68490   0.80000
Si         Si      0.38820   0.31510   0.80000
Si         Si      0.88820   0.18490   0.70000
Si         Si      0.11180   0.81510   0.70000
Si         Si      0.25010   0.87720   0.50000
Si         Si      0.74990   0.12280   0.50000
Si         Si      0.24990   0.37720   0.00000
Si         Si      0.75010   0.62280   0.00000
O          O       0.13700   0.29980   0.27130
O          O       0.86300   0.70020   0.27130
O          O       0.36300   0.79980   0.22870
O          O       0.63700   0.20020   0.22870
O          O       0.86300   0.70020   0.72870
O          O       0.13700   0.29980   0.72870
O          O       0.63700   0.20020   0.77130
O          O       0.36300   0.79980   0.77130
O          O       0.27770   0.26760   0.09520
O          O       0.72230   0.73240   0.09520
O          O       0.22230   0.76760   0.40480
O          O       0.77770   0.23240   0.40480
O          O       0.72230   0.73240   0.90480
O          O       0.27770   0.26760   0.90480
O          O       0.77770   0.23240   0.59520
O          O       0.22230   0.76760   0.59520
O          O       0.50000   0.50000   0.19810
O          O       0.00000   0.00000   0.30190
O          O       0.50000   0.50000   0.80190
O          O       0.00000   0.00000   0.69810
O          O       0.00000   0.00000   0.50000
O          O       0.50000   0.50000   0.00000
O          O       0.50000   0.00000   0.50000
O          O       0.00000   0.50000   0.00000
