data_crystal

_cell_length_a    14.39000
_cell_length_b    14.39000
_cell_length_c    25.19800
_cell_angle_alpha 90.00000
_cell_angle_beta  90.00000
_cell_angle_gamma 120.00000

_space_group_name_Hall 'P 1'
_space_group_name_H-M_alt 'P 1'

loop_
_symmetry_equiv_pos_as_xyz
 'x,y,z'

loop_
_atom_site_label
_atom_site_type_symbol
_atom_site_fract_x
_atom_site_fract_y
_atom_site_fract_z
Si         Si      0.53040   0.76520   0.86300
Si         Si      0.23480   0.46960   0.86300
Si         Si      0.23480   0.76520   0.86300
Si         Si      0.46960   0.23480   0.86300
Si         Si      0.76520   0.53040   0.86300
Si         Si      0.76520   0.23480   0.86300
Si         Si      0.46960   0.23480   0.13700
Si         Si      0.76520   0.53040   0.13700
Si         Si      0.76520   0.23480   0.13700
Si         Si      0.53040   0.76520   0.13700
Si         Si      0.23480   0.46960   0.13700
Si         Si      0.23480   0.76520   0.13700
Si         Si      0.58020   0.79010   0.65570
Si         Si      0.20990   0.41980   0.65570
Si         Si      0.20990   0.79010   0.65570
Si         Si      0.41980   0.20990   0.65570
Si         Si      0.79010   0.58020   0.65570
Si         Si      0.79010   0.20990   0.65570
Si         Si      0.41980   0.20990   0.34430
Si         Si      0.79010   0.58020   0.34430
Si         Si      0.79010   0.20990   0.34430
Si         Si      0.58020   0.79010   0.34430
Si         Si      0.20990   0.41980   0.34430
Si         Si      0.20990   0.79010   0.34430
Si         Si      0.74600   0.87300   0.55990
Si         Si      0.12700   0.25400   0.55990
Si         Si      0.12700   0.87300   0.55990
Si         Si      0.25400   0.12700   0.55990
Si         Si      0.87300   0.74600   0.55990
Si         Si      0.87300   0.12700   0.55990
Si         Si      0.25400   0.12700   0.44010
Si         Si      0.87300   0.74600   0.44010
Si         Si      0.87300   0.12700   0.44010
Si         Si      0.74600   0.87300   0.44010
Si         Si      0.12700   0.25400   0.44010
Si         Si      0.12700   0.87300   0.44010
Si         Si      0.60730   0.60730   0.83990
Si         Si      0.00000   0.39270   0.83990
Si         Si      0.39270   0.00000   0.83990
Si         Si      0.39270   0.39270   0.83990
Si         Si      0.00000   0.60730   0.83990
Si         Si      0.60730   0.00000   0.83990
Si         Si      0.39270   0.39270   0.16010
Si         Si      0.00000   0.60730   0.16010
Si         Si      0.60730   0.00000   0.16010
Si         Si      0.60730   0.60730   0.16010
Si         Si      0.00000   0.39270   0.16010
Si         Si      0.39270   0.00000   0.16010
Si         Si      0.60730   0.60730   0.71240
Si         Si      0.00000   0.39270   0.71240
Si         Si      0.39270   0.00000   0.71240
Si         Si      0.39270   0.39270   0.71240
Si         Si      0.00000   0.60730   0.71240
Si         Si      0.60730   0.00000   0.71240
Si         Si      0.39270   0.39270   0.28760
Si         Si      0.00000   0.60730   0.28760
Si         Si      0.60730   0.00000   0.28760
Si         Si      0.60730   0.60730   0.28760
Si         Si      0.00000   0.39270   0.28760
Si         Si      0.39270   0.00000   0.28760
Si         Si      0.33333   0.66667   0.93630
Si         Si      0.66667   0.33333   0.93630
Si         Si      0.66667   0.33333   0.06370
Si         Si      0.33333   0.66667   0.06370
Si         Si      0.33333   0.66667   0.78990
Si         Si      0.66667   0.33333   0.78990
Si         Si      0.66667   0.33333   0.21010
Si         Si      0.33333   0.66667   0.21010
Si         Si      0.33333   0.66667   0.66230
Si         Si      0.66667   0.33333   0.66230
Si         Si      0.66667   0.33333   0.33770
Si         Si      0.33333   0.66667   0.33770
O          O       0.33333   0.66667   0.00000
O          O       0.66667   0.33333   0.00000
O          O       0.45520   0.72760   0.91500
O          O       0.27240   0.54480   0.91500
O          O       0.27240   0.72760   0.91500
O          O       0.54480   0.27240   0.91500
O          O       0.72760   0.45520   0.91500
O          O       0.72760   0.27240   0.91500
O          O       0.54480   0.27240   0.08500
O          O       0.72760   0.45520   0.08500
O          O       0.72760   0.27240   0.08500
O          O       0.45520   0.72760   0.08500
O          O       0.27240   0.54480   0.08500
O          O       0.27240   0.72760   0.08500
O          O       0.60470   0.71070   0.86260
O          O       0.10600   0.39530   0.86260
O          O       0.28930   0.89400   0.86260
O          O       0.39530   0.28930   0.86260
O          O       0.89400   0.60470   0.86260
O          O       0.71070   0.10600   0.86260
O          O       0.10600   0.71070   0.86260
O          O       0.28930   0.39530   0.86260
O          O       0.60470   0.89400   0.86260
O          O       0.89400   0.28930   0.86260
O          O       0.71070   0.60470   0.86260
O          O       0.39530   0.10600   0.86260
O          O       0.39530   0.28930   0.13740
O          O       0.89400   0.60470   0.13740
O          O       0.71070   0.10600   0.13740
O          O       0.60470   0.71070   0.13740
O          O       0.10600   0.39530   0.13740
O          O       0.28930   0.89400   0.13740
O          O       0.89400   0.28930   0.13740
O          O       0.71070   0.60470   0.13740
O          O       0.39530   0.10600   0.13740
O          O       0.10600   0.71070   0.13740
O          O       0.28930   0.39530   0.13740
O          O       0.60470   0.89400   0.13740
O          O       0.45530   0.72770   0.81100
O          O       0.27240   0.54470   0.81100
O          O       0.27230   0.72760   0.81100
O          O       0.54470   0.27230   0.81100
O          O       0.72760   0.45530   0.81100
O          O       0.72770   0.27240   0.81100
O          O       0.54470   0.27230   0.18900
O          O       0.72760   0.45530   0.18900
O          O       0.72770   0.27240   0.18900
O          O       0.45530   0.72770   0.18900
O          O       0.27240   0.54470   0.18900
O          O       0.27230   0.72760   0.18900
O          O       0.33333   0.66667   0.72610
O          O       0.66667   0.33333   0.72610
O          O       0.66667   0.33333   0.27390
O          O       0.33333   0.66667   0.27390
O          O       0.61310   0.61310   0.77620
O          O       1.00000   0.38690   0.77620
O          O       0.38690   0.00000   0.77620
O          O       0.38690   0.38690   0.77620
O          O       1.00000   0.61310   0.77620
O          O       0.61310   0.00000   0.77620
O          O       0.38690   0.38690   0.22380
O          O       1.00000   0.61310   0.22380
O          O       0.61310   0.00000   0.22380
O          O       0.61310   0.61310   0.22380
O          O       1.00000   0.38690   0.22380
O          O       0.38690   0.00000   0.22380
O          O       0.50000   0.50000   0.85810
O          O       0.00000   0.50000   0.85810
O          O       0.50000   0.00000   0.85810
O          O       0.50000   0.50000   0.14190
O          O       0.00000   0.50000   0.14190
O          O       0.50000   0.00000   0.14190
O          O       0.50000   0.50000   0.69420
O          O       0.00000   0.50000   0.69420
O          O       0.50000   0.00000   0.69420
O          O       0.50000   0.50000   0.30580
O          O       0.00000   0.50000   0.30580
O          O       0.50000   0.00000   0.30580
O          O       0.60650   0.71170   0.68990
O          O       0.10520   0.39350   0.68990
O          O       0.28830   0.89480   0.68990
O          O       0.39350   0.28830   0.68990
O          O       0.89480   0.60650   0.68990
O          O       0.71170   0.10520   0.68990
O          O       0.10520   0.71170   0.68990
O          O       0.28830   0.39350   0.68990
O          O       0.60650   0.89480   0.68990
O          O       0.89480   0.28830   0.68990
O          O       0.71170   0.60650   0.68990
O          O       0.39350   0.10520   0.68990
O          O       0.39350   0.28830   0.31010
O          O       0.89480   0.60650   0.31010
O          O       0.71170   0.10520   0.31010
O          O       0.60650   0.71170   0.31010
O          O       0.10520   0.39350   0.31010
O          O       0.28830   0.89480   0.31010
O          O       0.89480   0.28830   0.31010
O          O       0.71170   0.60650   0.31010
O          O       0.39350   0.10520   0.31010
O          O       0.10520   0.71170   0.31010
O          O       0.28830   0.39350   0.31010
O          O       0.60650   0.89480   0.31010
O          O       0.45470   0.72730   0.64070
O          O       0.27260   0.54530   0.64070
O          O       0.27270   0.72740   0.64070
O          O       0.54530   0.27270   0.64070
O          O       0.72740   0.45470   0.64070
O          O       0.72730   0.27260   0.64070
O          O       0.54530   0.27270   0.35930
O          O       0.72740   0.45470   0.35930
O          O       0.72730   0.27260   0.35930
O          O       0.45470   0.72730   0.35930
O          O       0.27260   0.54530   0.35930
O          O       0.27270   0.72740   0.35930
O          O       0.64800   0.82400   0.60140
O          O       0.17600   0.35200   0.60140
O          O       0.17600   0.82400   0.60140
O          O       0.35200   0.17600   0.60140
O          O       0.82400   0.64800   0.60140
O          O       0.82400   0.17600   0.60140
O          O       0.35200   0.17600   0.39860
O          O       0.82400   0.64800   0.39860
O          O       0.82400   0.17600   0.39860
O          O       0.64800   0.82400   0.39860
O          O       0.17600   0.35200   0.39860
O          O       0.17600   0.82400   0.39860
O          O       0.81790   0.81790   0.56980
O          O       0.00000   0.18210   0.56980
O          O       0.18210   1.00000   0.56980
O          O       0.18210   0.18210   0.56980
O          O       1.00000   0.81790   0.56980
O          O       0.81790   0.00000   0.56980
O          O       0.18210   0.18210   0.43020
O          O       1.00000   0.81790   0.43020
O          O       0.81790   0.00000   0.43020
O          O       0.81790   0.81790   0.43020
O          O       0.00000   0.18210   0.43020
O          O       0.18210   1.00000   0.43020
O          O       0.70110   0.85060   0.50000
O          O       0.14950   0.29890   0.50000
O          O       0.14940   0.85050   0.50000
O          O       0.29890   0.14940   0.50000
O          O       0.85050   0.70110   0.50000
O          O       0.85060   0.14950   0.50000
