data_crystal

_cell_length_a    6.42000
_cell_length_b    10.30608
_cell_length_c    10.30608
_cell_angle_alpha 84.43290
_cell_angle_beta  71.85237
_cell_angle_gamma 71.85237

_space_group_name_Hall 'P 1'
_space_group_name_H-M_alt 'P 1'

loop_
_symmetry_equiv_pos_as_xyz
 'x,y,z'

loop_
_atom_site_label
_atom_site_type_symbol
_atom_site_fract_x
_atom_site_fract_y
_atom_site_fract_z
O          O       0.00000   0.00000   0.00000
O          O       0.00000   1.00000   0.50000
O          O       0.00000   0.50000   0.50000
O          O       0.50000   0.50000   0.00000
O          O       0.21980   0.75000   0.06040
O          O       0.96980   0.06040   0.75000
O          O       0.03020   0.75000   0.43960
O          O       0.78020   0.43960   0.75000
O          O       0.03020   0.93960   0.25000
O          O       0.78020   0.25000   0.93960
O          O       0.21980   0.56040   0.25000
O          O       0.96980   0.25000   0.56040
O          O       0.77010   0.84480   0.15520
O          O       0.61490   0.15520   0.65520
O          O       0.77010   0.65520   0.34480
O          O       0.42530   0.34480   0.84480
O          O       0.22990   0.15520   0.84480
O          O       0.38510   0.84480   0.34480
O          O       0.22990   0.34480   0.65520
O          O       0.57470   0.65520   0.15520
Si         Si      0.00620   0.88400   0.11600
Si         Si      0.89020   0.11600   0.61600
Si         Si      0.00620   0.61600   0.38400
Si         Si      0.62220   0.38400   0.88400
Si         Si      0.99380   0.11600   0.88400
Si         Si      0.10980   0.88400   0.38400
Si         Si      0.99380   0.38400   0.61600
Si         Si      0.37780   0.61600   0.11600
Si         Si      0.62500   0.75000   0.25000
Si         Si      0.37500   0.25000   0.75000
