data_crystal

_cell_length_a    13.37297
_cell_length_b    13.37297
_cell_length_c    14.76388
_cell_angle_alpha 104.12776
_cell_angle_beta  104.12776
_cell_angle_gamma 117.45527

_space_group_name_Hall 'P 1'
_space_group_name_H-M_alt 'P 1'

loop_
_symmetry_equiv_pos_as_xyz
 'x,y,z'

loop_
_atom_site_label
_atom_site_type_symbol
_atom_site_fract_x
_atom_site_fract_y
_atom_site_fract_z
O          O       0.53530   0.26070   0.30420
O          O       0.23110   0.95650   0.69580
O          O       0.04350   0.76890   0.30420
O          O       0.73930   0.46470   0.69580
O          O       0.46470   0.73930   0.69580
O          O       0.76890   0.04350   0.30420
O          O       0.95650   0.23110   0.69580
O          O       0.26070   0.53530   0.30420
O          O       0.67990   0.17990   0.35980
O          O       0.32010   0.82010   0.64020
O          O       0.17990   0.67990   0.35980
O          O       0.82010   0.32010   0.64020
O          O       0.66800   0.33200   0.50000
O          O       0.16800   0.83200   0.50000
O          O       0.33200   0.66800   0.50000
O          O       0.83200   0.16800   0.50000
O          O       0.77260   0.41620   0.38380
O          O       0.38880   0.03240   0.61620
O          O       0.96760   0.61120   0.38380
O          O       0.58380   0.22740   0.61620
O          O       0.22740   0.58380   0.61620
O          O       0.61120   0.96760   0.38380
O          O       0.03240   0.38880   0.61620
O          O       0.41620   0.77260   0.38380
O          O       0.15340   0.83740   0.80240
O          O       0.35100   0.03500   0.19760
O          O       0.96500   0.64900   0.80240
O          O       0.16260   0.84660   0.19760
O          O       0.84660   0.16260   0.19760
O          O       0.64900   0.96500   0.80240
O          O       0.03500   0.35100   0.19760
O          O       0.83740   0.15340   0.80240
O          O       0.13520   0.02260   0.82620
O          O       0.30900   0.19640   0.17380
O          O       0.80360   0.69100   0.82620
O          O       0.97740   0.86480   0.17380
O          O       0.86480   0.97740   0.17380
O          O       0.69100   0.80360   0.82620
O          O       0.19640   0.30900   0.17380
O          O       0.02260   0.13520   0.82620
O          O       0.35340   0.05540   0.89880
O          O       0.45460   0.15660   0.10120
O          O       0.84340   0.54540   0.89880
O          O       0.94460   0.64660   0.10120
O          O       0.64660   0.94460   0.10120
O          O       0.54540   0.84340   0.89880
O          O       0.15660   0.45460   0.10120
O          O       0.05540   0.35340   0.89880
O          O       0.38780   0.91440   0.30220
O          O       0.08560   0.61220   0.69780
O          O       0.61220   0.08560   0.69780
O          O       0.91440   0.38780   0.30220
O          O       0.50000   0.00000   0.50000
O          O       0.00000   0.50000   0.50000
O          O       0.18980   0.70940   0.89920
O          O       0.29060   0.81020   0.10080
O          O       0.81020   0.29060   0.10080
O          O       0.70940   0.18980   0.89920
O          O       0.86830   0.86830   1.00000
O          O       0.13170   0.13170   1.00000
O          O       0.92750   0.92750   0.85500
O          O       0.07250   0.07250   0.14500
O          O       0.41550   0.77550   0.00000
O          O       0.22450   0.58450   0.00000
O          O       0.58450   0.22450   0.00000
O          O       0.77550   0.41550   0.00000
O          O       0.50000   0.00000   0.00000
O          O       0.00000   0.50000   0.00000
Si         Si      0.66400   0.29500   0.38600
Si         Si      0.27800   0.90900   0.61400
Si         Si      0.09100   0.72200   0.38600
Si         Si      0.70500   0.33600   0.61400
Si         Si      0.33600   0.70500   0.61400
Si         Si      0.72200   0.09100   0.38600
Si         Si      0.90900   0.27800   0.61400
Si         Si      0.29500   0.66400   0.38600
Si         Si      0.21970   0.97330   0.80360
Si         Si      0.41610   0.16970   0.19640
Si         Si      0.83030   0.58390   0.80360
Si         Si      0.02670   0.78030   0.19640
Si         Si      0.78030   0.02670   0.19640
Si         Si      0.58390   0.83030   0.80360
Si         Si      0.16970   0.41610   0.19640
Si         Si      0.97330   0.21970   0.80360
Si         Si      0.48070   0.91190   0.39260
Si         Si      0.08810   0.51930   0.60740
Si         Si      0.51930   0.08810   0.60740
Si         Si      0.91190   0.48070   0.39260
Si         Si      0.09850   0.70210   0.80060
Si         Si      0.29790   0.90150   0.19940
Si         Si      0.90150   0.29790   0.19940
Si         Si      0.70210   0.09850   0.80060
Si         Si      0.82460   0.82460   0.87760
Si         Si      0.94700   0.94700   0.12240
Si         Si      0.05300   0.05300   0.87760
Si         Si      0.17540   0.17540   0.12240
Si         Si      0.52760   0.89500   0.00000
Si         Si      0.10500   0.47240   1.00000
Si         Si      0.47240   0.10500   1.00000
Si         Si      0.89500   0.52760   0.00000
Si         Si      0.28040   0.71960   0.00000
Si         Si      0.71960   0.28040   0.00000
