data_crystal

_cell_length_a    10.47968
_cell_length_b    10.47968
_cell_length_c    13.38708
_cell_angle_alpha 110.24500
_cell_angle_beta  110.24500
_cell_angle_gamma 96.65710

_space_group_name_Hall 'P 1'
_space_group_name_H-M_alt 'P 1'

loop_
_symmetry_equiv_pos_as_xyz
 'x,y,z'

loop_
_atom_site_label
_atom_site_type_symbol
_atom_site_fract_x
_atom_site_fract_y
_atom_site_fract_z
O          O       0.68290   0.51450   0.69840
O          O       0.98450   0.81610   0.30160
O          O       0.51450   0.68290   0.69840
O          O       0.81610   0.98450   0.30160
O          O       0.31710   0.48550   0.30160
O          O       0.01550   0.18390   0.69840
O          O       0.48550   0.31710   0.30160
O          O       0.18390   0.01550   0.69840
O          O       0.92300   0.63900   0.88500
O          O       0.03800   0.75400   0.11500
O          O       0.63900   0.92300   0.88500
O          O       0.75400   0.03800   0.11500
O          O       0.07700   0.36100   0.11500
O          O       0.96200   0.24600   0.88500
O          O       0.36100   0.07700   0.11500
O          O       0.24600   0.96200   0.88500
O          O       0.87370   0.37370   0.74740
O          O       0.12630   0.62630   0.25260
O          O       0.37370   0.87370   0.74740
O          O       0.62630   0.12630   0.25260
O          O       0.92110   0.56610   0.67520
O          O       0.24590   0.89090   0.32480
O          O       0.56610   0.92110   0.67520
O          O       0.89090   0.24590   0.32480
O          O       0.07890   0.43390   0.32480
O          O       0.75410   0.10910   0.67520
O          O       0.43390   0.07890   0.32480
O          O       0.10910   0.75410   0.67520
O          O       0.50000   1.00000   0.50000
O          O       1.00000   0.50000   0.50000
O          O       0.67900   0.84660   0.52560
O          O       0.15340   0.32100   0.47440
O          O       0.84660   0.67900   0.52560
O          O       0.32100   0.15340   0.47440
O          O       0.12390   0.87610   1.00000
O          O       0.87610   0.12390   1.00000
O          O       0.12790   0.12790   1.00000
O          O       0.87210   0.87210   1.00000
O          O       0.22240   0.22240   0.63520
O          O       0.58720   0.58720   0.36480
O          O       0.77760   0.77760   0.36480
O          O       0.41280   0.41280   0.63520
O          O       0.00000   0.00000   0.50000
O          O       0.50000   0.50000   0.50000
Si         Si      0.84850   0.52350   0.75140
Si         Si      0.09710   0.77210   0.24860
Si         Si      0.52350   0.84850   0.75140
Si         Si      0.77210   0.09710   0.24860
Si         Si      0.15150   0.47650   0.24860
Si         Si      0.90290   0.22790   0.75140
Si         Si      0.47650   0.15150   0.24860
Si         Si      0.22790   0.90290   0.75140
Si         Si      0.62330   0.97050   0.59380
Si         Si      0.02950   0.37670   0.40620
Si         Si      0.97050   0.62330   0.59380
Si         Si      0.37670   0.02950   0.40620
Si         Si      0.21450   0.01090   0.00000
Si         Si      0.01090   0.21450   0.00000
Si         Si      0.78550   0.98910   0.00000
Si         Si      0.98910   0.78550   1.00000
Si         Si      0.10540   0.10540   0.63240
Si         Si      0.47300   0.47300   0.36760
Si         Si      0.89460   0.89460   0.36760
Si         Si      0.52700   0.52700   0.63240
Si         Si      0.27780   0.27780   0.55560
Si         Si      0.72220   0.72220   0.44440
