data_crystal

_cell_length_a    5.25900
_cell_length_b    8.39100
_cell_length_c    8.39100
_cell_angle_alpha 120.00000
_cell_angle_beta  90.00000
_cell_angle_gamma 90.00000

_space_group_name_Hall 'P 1'
_space_group_name_H-M_alt 'P 1'

loop_
_symmetry_equiv_pos_as_xyz
 'x,y,z'

loop_
_atom_site_label
_atom_site_type_symbol
_atom_site_fract_x
_atom_site_fract_y
_atom_site_fract_z
Si         Si      0.25000   0.88310   0.36370
Si         Si      0.25000   0.48060   0.11690
Si         Si      0.25000   0.63630   0.51940
Si         Si      0.75000   0.51940   0.63630
Si         Si      0.75000   0.36370   0.88310
Si         Si      0.75000   0.11690   0.48060
O          O       0.25000   0.83090   0.52430
O          O       0.25000   0.69340   0.16910
O          O       0.25000   0.47570   0.30660
O          O       0.75000   0.30660   0.47570
O          O       0.75000   0.52430   0.83090
O          O       0.75000   0.16910   0.69340
O          O       0.50000   0.00000   0.37820
O          O       0.50000   0.37820   0.00000
O          O       0.50000   0.62180   0.62180
O          O       0.00000   0.00000   0.37820
O          O       0.00000   0.37820   0.00000
O          O       1.00000   0.62180   0.62180
