data_crystal

_cell_length_a    13.88300
_cell_length_b    13.88300
_cell_length_c    13.88300
_cell_angle_alpha 90.00000
_cell_angle_beta  90.00000
_cell_angle_gamma 90.00000

_space_group_name_Hall 'P 1'
_space_group_name_H-M_alt 'P 1'

loop_
_symmetry_equiv_pos_as_xyz
 'x,y,z'

loop_
_atom_site_label
_atom_site_type_symbol
_atom_site_fract_x
_atom_site_fract_y
_atom_site_fract_z
Si         Si      0.24350   0.24350   0.39330
Si         Si      0.39330   0.24350   0.24350
Si         Si      0.24350   0.39330   0.24350
Si         Si      0.24350   0.75650   0.60670
Si         Si      0.39330   0.75650   0.75650
Si         Si      0.24350   0.60670   0.75650
Si         Si      0.75650   0.24350   0.60670
Si         Si      0.60670   0.24350   0.75650
Si         Si      0.75650   0.39330   0.75650
Si         Si      0.75650   0.75650   0.39330
Si         Si      0.60670   0.75650   0.24350
Si         Si      0.75650   0.60670   0.24350
Si         Si      0.75650   0.75650   0.60670
Si         Si      0.60670   0.75650   0.75650
Si         Si      0.75650   0.60670   0.75650
Si         Si      0.75650   0.24350   0.39330
Si         Si      0.60670   0.24350   0.24350
Si         Si      0.75650   0.39330   0.24350
Si         Si      0.24350   0.75650   0.39330
Si         Si      0.39330   0.75650   0.24350
Si         Si      0.24350   0.60670   0.24350
Si         Si      0.24350   0.24350   0.60670
Si         Si      0.39330   0.24350   0.75650
Si         Si      0.24350   0.39330   0.75650
Si         Si      0.11390   0.11390   0.50000
Si         Si      0.50000   0.11390   0.11390
Si         Si      0.11390   0.50000   0.11390
Si         Si      0.11390   0.88610   0.50000
Si         Si      0.50000   0.88610   0.88610
Si         Si      0.11390   0.50000   0.88610
Si         Si      0.88610   0.11390   0.50000
Si         Si      0.50000   0.11390   0.88610
Si         Si      0.88610   0.50000   0.88610
Si         Si      0.88610   0.88610   0.50000
Si         Si      0.50000   0.88610   0.11390
Si         Si      0.88610   0.50000   0.11390
O          O       0.27600   0.27600   0.50000
O          O       0.50000   0.27600   0.27600
O          O       0.27600   0.50000   0.27600
O          O       0.27600   0.72400   0.50000
O          O       0.50000   0.72400   0.72400
O          O       0.27600   0.50000   0.72400
O          O       0.72400   0.27600   0.50000
O          O       0.50000   0.27600   0.72400
O          O       0.72400   0.50000   0.72400
O          O       0.72400   0.72400   0.50000
O          O       0.50000   0.72400   0.27600
O          O       0.72400   0.50000   0.27600
O          O       0.33480   0.20190   0.33480
O          O       0.33480   0.33480   0.20190
O          O       0.20190   0.33480   0.33480
O          O       0.33480   0.79810   0.66520
O          O       0.33480   0.66520   0.79810
O          O       0.20190   0.66520   0.66520
O          O       0.66520   0.20190   0.66520
O          O       0.66520   0.33480   0.79810
O          O       0.79810   0.33480   0.66520
O          O       0.66520   0.79810   0.33480
O          O       0.66520   0.66520   0.20190
O          O       0.79810   0.66520   0.33480
O          O       0.66520   0.79810   0.66520
O          O       0.66520   0.66520   0.79810
O          O       0.79810   0.66520   0.66520
O          O       0.66520   0.20190   0.33480
O          O       0.66520   0.33480   0.20190
O          O       0.79810   0.33480   0.33480
O          O       0.33480   0.79810   0.33480
O          O       0.33480   0.66520   0.20190
O          O       0.20190   0.66520   0.33480
O          O       0.33480   0.20190   0.66520
O          O       0.33480   0.33480   0.79810
O          O       0.20190   0.33480   0.66520
O          O       0.16180   0.16180   0.40560
O          O       0.40560   0.16180   0.16180
O          O       0.16180   0.40560   0.16180
O          O       0.16180   0.83820   0.59440
O          O       0.40560   0.83820   0.83820
O          O       0.16180   0.59440   0.83820
O          O       0.83820   0.16180   0.59440
O          O       0.59440   0.16180   0.83820
O          O       0.83820   0.40560   0.83820
O          O       0.83820   0.83820   0.40560
O          O       0.59440   0.83820   0.16180
O          O       0.83820   0.59440   0.16180
O          O       0.83820   0.83820   0.59440
O          O       0.59440   0.83820   0.83820
O          O       0.83820   0.59440   0.83820
O          O       0.83820   0.16180   0.40560
O          O       0.59440   0.16180   0.16180
O          O       0.83820   0.40560   0.16180
O          O       0.16180   0.83820   0.40560
O          O       0.40560   0.83820   0.16180
O          O       0.16180   0.59440   0.16180
O          O       0.16180   0.16180   0.59440
O          O       0.40560   0.16180   0.83820
O          O       0.16180   0.40560   0.83820
O          O       0.13440   0.00000   0.50000
O          O       0.50000   0.13440   0.00000
O          O       0.00000   0.50000   0.13440
O          O       0.13440   0.50000   0.00000
O          O       0.00000   0.13440   0.50000
O          O       0.50000   0.00000   0.13440
O          O       0.50000   0.86560   0.00000
O          O       0.00000   0.50000   0.86560
O          O       0.00000   0.86560   0.50000
O          O       0.50000   0.00000   0.86560
O          O       0.86560   0.00000   0.50000
O          O       0.86560   0.50000   0.00000
