data_crystal

_cell_length_a    5.25300
_cell_length_b    7.53695
_cell_length_c    8.92800
_cell_angle_alpha 104.38315
_cell_angle_beta  90.00000
_cell_angle_gamma 110.39456

_space_group_name_Hall 'P 1'
_space_group_name_H-M_alt 'P 1'

loop_
_symmetry_equiv_pos_as_xyz
 'x,y,z'

loop_
_atom_site_label
_atom_site_type_symbol
_atom_site_fract_x
_atom_site_fract_y
_atom_site_fract_z
O          O       0.32480   0.64960   0.80390
O          O       0.67520   0.35040   0.19610
O          O       0.21890   0.93780   0.73640
O          O       0.28110   0.06220   0.26360
O          O       0.78110   0.06220   0.26360
O          O       0.71890   0.93780   0.73640
O          O       0.50000   0.00000   0.00000
O          O       0.00000   0.00000   0.50000
O          O       0.86550   0.73100   0.23320
O          O       0.13450   0.26900   0.76680
O          O       0.50000   0.50000   0.00000
O          O       0.00000   0.50000   0.00000
Si         Si      0.44100   0.88200   0.81950
Si         Si      0.55900   0.11800   0.18050
Si         Si      0.98160   0.96320   0.31450
Si         Si      0.01840   0.03680   0.68550
Si         Si      0.76040   0.52080   0.10680
Si         Si      0.23960   0.47920   0.89320
