data_crystal

_cell_length_a    13.91400
_cell_length_b    13.91400
_cell_length_c    18.29311
_cell_angle_alpha 112.35271
_cell_angle_beta  112.35271
_cell_angle_gamma 90.00000

_space_group_name_Hall 'P 1'
_space_group_name_H-M_alt 'P 1'

loop_
_symmetry_equiv_pos_as_xyz
 'x,y,z'

loop_
_atom_site_label
_atom_site_type_symbol
_atom_site_fract_x
_atom_site_fract_y
_atom_site_fract_z
O          O       0.85300   0.35300   0.70600
O          O       0.35300   0.85300   0.70600
O          O       0.14700   0.64700   0.29400
O          O       0.64700   0.14700   0.29400
O          O       0.13400   1.00000   1.00000
O          O       1.00000   0.13400   1.00000
O          O       0.86600   0.00000   1.00000
O          O       1.00000   0.86600   1.00000
O          O       0.20390   0.20390   0.08480
O          O       0.88090   0.20390   0.08480
O          O       0.88090   0.88090   0.08480
O          O       0.20390   0.88090   0.08480
O          O       0.79610   0.79610   0.91520
O          O       0.11910   0.79610   0.91520
O          O       0.11910   0.11910   0.91520
O          O       0.79610   0.11910   0.91520
O          O       0.68440   0.44260   0.69640
O          O       0.25380   0.68440   0.69640
O          O       0.01200   0.25380   0.69640
O          O       0.44260   0.01200   0.69640
O          O       0.01200   0.44260   0.69640
O          O       0.44260   0.68440   0.69640
O          O       0.68440   0.25380   0.69640
O          O       0.25380   0.01200   0.69640
O          O       0.31560   0.55740   0.30360
O          O       0.74620   0.31560   0.30360
O          O       0.98800   0.74620   0.30360
O          O       0.55740   0.98800   0.30360
O          O       0.98800   0.55740   0.30360
O          O       0.55740   0.31560   0.30360
O          O       0.31560   0.74620   0.30360
O          O       0.74620   0.98800   0.30360
O          O       0.68610   0.28040   0.56080
O          O       0.28040   0.68610   0.56080
O          O       0.87470   0.28040   0.56080
O          O       0.28040   0.87470   0.56080
O          O       0.31390   0.71960   0.43920
O          O       0.71960   0.31390   0.43920
O          O       0.12530   0.71960   0.43920
O          O       0.71960   0.12530   0.43920
O          O       0.62570   0.40080   0.80160
O          O       0.40080   0.62570   0.80160
O          O       0.17590   0.40080   0.80160
O          O       0.40080   0.17590   0.80160
O          O       0.37430   0.59920   0.19840
O          O       0.59920   0.37430   0.19840
O          O       0.82410   0.59920   0.19840
O          O       0.59920   0.82410   0.19840
O          O       0.40820   0.27480   0.14800
O          O       0.87320   0.40820   0.14800
O          O       0.73980   0.87320   0.14800
O          O       0.27480   0.73980   0.14800
O          O       0.73980   0.27480   0.14800
O          O       0.27480   0.40820   0.14800
O          O       0.40820   0.87320   0.14800
O          O       0.87320   0.73980   0.14800
O          O       0.59180   0.72520   0.85200
O          O       0.12680   0.59180   0.85200
O          O       0.26020   0.12680   0.85200
O          O       0.72520   0.26020   0.85200
O          O       0.26020   0.72520   0.85200
O          O       0.72520   0.59180   0.85200
O          O       0.59180   0.12680   0.85200
O          O       0.12680   0.26020   0.85200
O          O       0.53170   0.53170   0.73500
O          O       0.20330   0.53170   0.73500
O          O       0.20330   0.20330   0.73500
O          O       0.53170   0.20330   0.73500
O          O       0.46830   0.46830   0.26500
O          O       0.79670   0.46830   0.26500
O          O       0.79670   0.79670   0.26500
O          O       0.46830   0.79670   0.26500
O          O       0.27540   0.27540   1.00000
O          O       0.72460   0.27540   1.00000
O          O       0.72460   0.72460   1.00000
O          O       0.27540   0.72460   1.00000
Si         Si      0.64190   0.49190   0.77120
Si         Si      0.27930   0.64190   0.77120
Si         Si      0.12930   0.27930   0.77120
Si         Si      0.49190   0.12930   0.77120
Si         Si      0.12930   0.49190   0.77120
Si         Si      0.49190   0.64190   0.77120
Si         Si      0.64190   0.27930   0.77120
Si         Si      0.27930   0.12930   0.77120
Si         Si      0.35810   0.50810   0.22880
Si         Si      0.72070   0.35810   0.22880
Si         Si      0.87070   0.72070   0.22880
Si         Si      0.50810   0.87070   0.22880
Si         Si      0.87070   0.50810   0.22880
Si         Si      0.50810   0.35810   0.22880
Si         Si      0.35810   0.72070   0.22880
Si         Si      0.72070   0.87070   0.22880
Si         Si      0.33230   0.72580   0.66460
Si         Si      0.93880   0.33230   0.66460
Si         Si      0.33230   0.93880   0.66460
Si         Si      0.72580   0.33230   0.66460
Si         Si      0.66770   0.27420   0.33540
Si         Si      0.06120   0.66770   0.33540
Si         Si      0.66770   0.06120   0.33540
Si         Si      0.27420   0.66770   0.33540
Si         Si      0.29100   0.29100   0.09600
Si         Si      0.80500   0.29100   0.09600
Si         Si      0.80500   0.80500   0.09600
Si         Si      0.29100   0.80500   0.09600
Si         Si      0.70900   0.70900   0.90400
Si         Si      0.19500   0.70900   0.90400
Si         Si      0.19500   0.19500   0.90400
Si         Si      0.70900   0.19500   0.90400
Si         Si      0.11370   0.11370   0.00000
Si         Si      0.88630   0.11370   0.00000
Si         Si      0.88630   0.88630   0.00000
Si         Si      0.11370   0.88630   0.00000
Si         Si      0.25000   0.75000   0.50000
Si         Si      0.75000   0.25000   0.50000
