data_crystal

_cell_length_a    7.56500
_cell_length_b    13.06300
_cell_length_c    13.06300
_cell_angle_alpha 120.00000
_cell_angle_beta  90.00000
_cell_angle_gamma 90.00000

_space_group_name_Hall 'P 1'
_space_group_name_H-M_alt 'P 1'

loop_
_symmetry_equiv_pos_as_xyz
 'x,y,z'

loop_
_atom_site_label
_atom_site_type_symbol
_atom_site_fract_x
_atom_site_fract_y
_atom_site_fract_z
Si         Si      0.79680   0.00020   0.23420
Si         Si      0.79680   0.23400   0.99980
Si         Si      0.79680   0.76580   0.76600
Si         Si      0.20320   0.00020   0.23420
Si         Si      0.20320   0.23400   0.99980
Si         Si      0.20320   0.76580   0.76600
Si         Si      0.79680   0.23400   0.23420
Si         Si      0.79680   0.76580   0.99980
Si         Si      0.79680   0.00020   0.76600
Si         Si      0.20320   0.23400   0.23420
Si         Si      0.20320   0.76580   0.99980
Si         Si      0.20320   0.00020   0.76600
Si         Si      0.50000   0.90360   0.33000
Si         Si      0.50000   0.42640   0.09640
Si         Si      0.50000   0.67000   0.57360
Si         Si      0.50000   0.42640   0.33000
Si         Si      0.50000   0.67000   0.09640
Si         Si      0.50000   0.90360   0.57360
O          O       0.77560   0.90390   0.09600
O          O       0.77560   0.19210   0.09610
O          O       0.77560   0.90400   0.80790
O          O       0.22440   0.90390   0.09600
O          O       0.22440   0.19210   0.09610
O          O       0.22440   0.90400   0.80790
O          O       0.73820   0.12820   0.25640
O          O       0.73820   0.12820   0.87180
O          O       0.73820   0.74360   0.87180
O          O       0.26180   0.12820   0.25640
O          O       0.26180   0.12820   0.87180
O          O       0.26180   0.74360   0.87180
O          O       0.67370   0.96350   0.31120
O          O       0.67370   0.34770   0.03650
O          O       0.67370   0.68880   0.65230
O          O       0.32630   0.96350   0.31120
O          O       0.32630   0.34770   0.03650
O          O       0.32630   0.68880   0.65230
O          O       0.67370   0.34770   0.31120
O          O       0.67370   0.68880   0.03650
O          O       0.67370   0.96350   0.65230
O          O       0.32630   0.34770   0.31120
O          O       0.32630   0.68880   0.03650
O          O       0.32630   0.96350   0.65230
O          O       1.00000   0.00500   0.27290
O          O       0.00000   0.26790   0.99500
O          O       1.00000   0.72710   0.73210
O          O       1.00000   0.26790   0.27290
O          O       0.00000   0.72710   0.99500
O          O       0.00000   0.00500   0.73210
O          O       0.50000   0.76410   0.23590
O          O       0.50000   0.47180   0.23590
O          O       0.50000   0.76410   0.52820
O          O       0.50000   0.92440   0.46220
O          O       0.50000   0.53780   0.07560
O          O       0.50000   0.53780   0.46220
