data_crystal

_cell_length_a    12.35160
_cell_length_b    13.83322
_cell_length_c    13.87826
_cell_angle_alpha 119.89269
_cell_angle_beta  106.50435
_cell_angle_gamma 90.00000

_space_group_name_Hall 'P 1'
_space_group_name_H-M_alt 'P 1'

loop_
_symmetry_equiv_pos_as_xyz
 'x,y,z'

loop_
_atom_site_label
_atom_site_type_symbol
_atom_site_fract_x
_atom_site_fract_y
_atom_site_fract_z
O          O       0.77376   0.77314   0.35228
O          O       0.77376   0.57914   0.35228
O          O       0.22624   0.22686   0.64772
O          O       0.22624   0.42086   0.64772
O          O       0.79487   0.93452   0.30850
O          O       0.79487   0.37398   0.30850
O          O       0.20513   0.06548   0.69150
O          O       0.20513   0.62602   0.69150
O          O       0.61171   0.89442   0.35226
O          O       0.61171   0.45784   0.35226
O          O       0.38829   0.10558   0.64774
O          O       0.38829   0.54216   0.64774
O          O       0.80811   0.98889   0.52358
O          O       0.80811   0.53469   0.52358
O          O       0.19189   0.01111   0.47642
O          O       0.19189   0.46531   0.47642
O          O       0.45157   0.77696   0.36164
O          O       0.45157   0.58468   0.36164
O          O       0.54843   0.22304   0.63836
O          O       0.54843   0.41532   0.63836
O          O       0.50000   0.00000   0.50000
O          O       0.50000   0.50000   0.50000
O          O       0.39608   0.90297   0.27000
O          O       0.39608   0.36703   0.27000
O          O       0.60392   0.09703   0.73000
O          O       0.60392   0.63297   0.73000
O          O       0.99807   0.87891   0.31408
O          O       0.99807   0.43517   0.31408
O          O       0.00193   0.12109   0.68592
O          O       0.00193   0.56483   0.68592
O          O       0.16378   0.79031   0.39096
O          O       0.16378   0.60065   0.39096
O          O       0.83622   0.20969   0.60904
O          O       0.83622   0.39935   0.60904
O          O       0.18242   0.86014   0.25522
O          O       0.18242   0.39508   0.25522
O          O       0.81758   0.13986   0.74478
O          O       0.81758   0.60492   0.74478
O          O       0.96455   0.07682   0.34420
O          O       0.96455   0.26738   0.34420
O          O       0.03545   0.92318   0.65580
O          O       0.03545   0.73262   0.65580
O          O       0.26025   0.05346   0.29604
O          O       0.26025   0.24258   0.29604
O          O       0.73975   0.94654   0.70396
O          O       0.73975   0.75742   0.70396
O          O       0.18473   0.79118   0.58236
O          O       0.81527   0.20882   0.41764
O          O       0.35681   0.74786   0.49572
O          O       0.64319   0.25214   0.50428
O          O       0.03582   0.27068   0.54136
O          O       0.96418   0.72932   0.45864
O          O       0.20546   0.22878   0.45756
O          O       0.79454   0.77122   0.54244
O          O       0.42053   0.22848   0.45696
O          O       0.57947   0.77152   0.54304
O          O       0.77799   0.11987   0.91282
O          O       0.77799   0.79295   0.91282
O          O       0.22201   0.88013   0.08718
O          O       0.22201   0.20705   0.08718
O          O       0.87630   0.23684   0.13646
O          O       0.87630   0.89962   0.13646
O          O       0.12370   0.76316   0.86354
O          O       0.12370   0.10038   0.86354
O          O       0.00000   0.86929   0.00000
O          O       0.00000   0.13071   0.00000
O          O       0.85475   0.01312   0.02624
O          O       0.14525   0.98688   0.97376
Si         Si      0.74828   0.89838   0.38532
Si         Si      0.74828   0.48694   0.38532
Si         Si      0.25172   0.10162   0.61468
Si         Si      0.25172   0.51306   0.61468
Si         Si      0.48948   0.89428   0.37220
Si         Si      0.48948   0.47792   0.37220
Si         Si      0.51052   0.10572   0.62780
Si         Si      0.51052   0.52208   0.62780
Si         Si      0.13501   0.88808   0.36164
Si         Si      0.13501   0.47356   0.36164
Si         Si      0.86499   0.11192   0.63836
Si         Si      0.86499   0.52644   0.63836
Si         Si      0.90646   0.94584   0.27442
Si         Si      0.90646   0.32858   0.27442
Si         Si      0.09354   0.05416   0.72558
Si         Si      0.09354   0.67142   0.72558
Si         Si      0.26699   0.92100   0.22456
Si         Si      0.26699   0.30356   0.22456
Si         Si      0.73301   0.07900   0.77544
Si         Si      0.73301   0.69644   0.77544
Si         Si      0.87835   0.12337   0.01896
Si         Si      0.87835   0.89559   0.01896
Si         Si      0.12165   0.87663   0.98104
Si         Si      0.12165   0.10441   0.98104
Si         Si      0.21987   0.73235   0.46470
Si         Si      0.78013   0.26765   0.53530
Si         Si      0.17348   0.28846   0.57692
Si         Si      0.82652   0.71154   0.42308
Si         Si      0.28751   0.18895   0.37790
Si         Si      0.71249   0.81105   0.62210
Si         Si      0.54191   0.28054   0.56108
Si         Si      0.45809   0.71946   0.43892
Si         Si      0.94330   0.20538   0.41076
Si         Si      0.05670   0.79462   0.58924
