data_crystal

_cell_length_a    5.26800
_cell_length_b    13.34818
_cell_length_c    13.34818
_cell_angle_alpha 87.76838
_cell_angle_beta  78.61912
_cell_angle_gamma 78.61912

_space_group_name_Hall 'P 1'
_space_group_name_H-M_alt 'P 1'

loop_
_symmetry_equiv_pos_as_xyz
 'x,y,z'

loop_
_atom_site_label
_atom_site_type_symbol
_atom_site_fract_x
_atom_site_fract_y
_atom_site_fract_z
O          O       0.69230   0.61540   1.00000
O          O       0.30770   1.00000   0.38460
O          O       0.30770   0.38460   1.00000
O          O       0.69230   1.00000   0.61540
O          O       0.56480   0.50000   0.87040
O          O       0.06480   0.87040   0.50000
O          O       0.93520   0.50000   0.12960
O          O       0.43520   0.12960   0.50000
O          O       0.93520   0.12960   0.50000
O          O       0.43520   0.50000   0.12960
O          O       0.56480   0.87040   0.50000
O          O       0.06480   0.50000   0.87040
O          O       0.76980   0.65870   0.80170
O          O       0.42850   0.80170   0.34130
O          O       0.23020   0.34130   0.19830
O          O       0.57150   0.19830   0.65870
O          O       0.23020   0.19830   0.34130
O          O       0.57150   0.65870   0.19830
O          O       0.76980   0.80170   0.65870
O          O       0.42850   0.34130   0.80170
O          O       0.92060   0.82940   0.82940
O          O       0.75000   0.82940   0.17060
O          O       0.57940   0.17060   0.17060
O          O       0.75000   0.17060   0.82940
O          O       0.07940   0.17060   0.17060
O          O       0.25000   0.17060   0.82940
O          O       0.42060   0.82940   0.82940
O          O       0.25000   0.82940   0.17060
O          O       0.07110   0.85780   0.00000
O          O       0.92890   1.00000   0.14220
O          O       0.92890   0.14220   0.00000
O          O       0.07110   1.00000   0.85780
Si         Si      0.77260   0.56890   0.88590
Si         Si      0.34150   0.88590   0.43110
Si         Si      0.22740   0.43110   0.11410
Si         Si      0.65850   0.11410   0.56890
Si         Si      0.22740   0.11410   0.43110
Si         Si      0.65850   0.56890   0.11410
Si         Si      0.77260   0.88590   0.56890
Si         Si      0.34150   0.43110   0.88590
Si         Si      0.12090   0.87910   0.87910
Si         Si      1.00000   0.87910   0.12090
Si         Si      0.87910   0.12090   0.12090
Si         Si      1.00000   0.12090   0.87910
Si         Si      0.72040   0.77960   0.77960
Si         Si      0.50000   0.77960   0.22040
Si         Si      0.27960   0.22040   0.22040
Si         Si      0.50000   0.22040   0.77960
