data_crystal

_cell_length_a    7.64700
_cell_length_b    10.10100
_cell_length_c    10.10100
_cell_angle_alpha 120.00000
_cell_angle_beta  90.00000
_cell_angle_gamma 90.00000

_space_group_name_Hall 'P 1'
_space_group_name_H-M_alt 'P 1'

loop_
_symmetry_equiv_pos_as_xyz
 'x,y,z'

loop_
_atom_site_label
_atom_site_type_symbol
_atom_site_fract_x
_atom_site_fract_y
_atom_site_fract_z
Si         Si      0.00000   0.71350   0.28660
Si         Si      0.33333   0.57310   0.28650
Si         Si      0.66667   0.71340   0.42690
Si         Si      0.33333   0.42690   0.71340
Si         Si      0.00000   0.28660   0.71350
Si         Si      0.66667   0.28650   0.57310
Si         Si      0.83330   0.00000   0.50000
Si         Si      0.16663   0.50000   0.00000
Si         Si      0.49997   0.50000   0.50000
O          O       0.16670   0.68290   0.36580
O          O       0.50003   0.68290   0.31710
O          O       0.83337   0.63420   0.31710
O          O       0.16663   0.31710   0.63420
O          O       0.83330   0.36580   0.68290
O          O       0.49997   0.31710   0.68290
O          O       0.29050   0.53570   0.89270
O          O       0.62383   0.35700   0.46430
O          O       0.95717   0.10730   0.64300
O          O       0.04283   0.64300   0.10730
O          O       0.70950   0.89270   0.53570
O          O       0.37617   0.46430   0.35700
O          O       0.29050   0.46430   0.10730
O          O       0.62383   0.64300   0.53570
O          O       0.95717   0.89270   0.35700
O          O       0.04283   0.35700   0.89270
O          O       0.70950   0.10730   0.46430
O          O       0.37617   0.53570   0.64300
