data_crystal

_cell_length_a    7.16600
_cell_length_b    9.08000
_cell_length_c    14.35500
_cell_angle_alpha 90.00000
_cell_angle_beta  90.00000
_cell_angle_gamma 90.00000

_space_group_name_Hall 'P 1'
_space_group_name_H-M_alt 'P 1'

loop_
_symmetry_equiv_pos_as_xyz
 'x,y,z'

loop_
_atom_site_label
_atom_site_type_symbol
_atom_site_fract_x
_atom_site_fract_y
_atom_site_fract_z
Si         Si      0.21620   0.34130   0.14160
Si         Si      0.21620   0.34130   0.35840
Si         Si      0.78380   0.34130   0.14160
Si         Si      0.78380   0.34130   0.35840
Si         Si      0.78380   0.65870   0.85840
Si         Si      0.78380   0.65870   0.64160
Si         Si      0.21620   0.65870   0.85840
Si         Si      0.21620   0.65870   0.64160
Si         Si      0.50000   0.59490   0.14290
Si         Si      0.50000   0.59490   0.35710
Si         Si      0.50000   0.40510   0.85710
Si         Si      0.50000   0.40510   0.64290
Si         Si      0.50000   0.17390   0.02060
Si         Si      0.50000   0.17390   0.47940
Si         Si      0.50000   0.82610   0.97940
Si         Si      0.50000   0.82610   0.52060
O          O       0.31660   0.21680   0.07940
O          O       0.31660   0.21680   0.42060
O          O       0.68340   0.21680   0.07940
O          O       0.68340   0.21680   0.42060
O          O       0.68340   0.78320   0.92060
O          O       0.68340   0.78320   0.57940
O          O       0.31660   0.78320   0.92060
O          O       0.31660   0.78320   0.57940
O          O       0.00000   0.35280   0.11220
O          O       0.00000   0.35280   0.38780
O          O       0.00000   0.64720   0.88780
O          O       0.00000   0.64720   0.61220
O          O       0.31650   0.49740   0.12340
O          O       0.31650   0.49740   0.37660
O          O       0.68350   0.49740   0.12340
O          O       0.68350   0.49740   0.37660
O          O       0.68350   0.50260   0.87660
O          O       0.68350   0.50260   0.62340
O          O       0.31650   0.50260   0.87660
O          O       0.31650   0.50260   0.62340
O          O       0.23240   0.29790   0.25000
O          O       0.76760   0.29790   0.25000
O          O       0.76760   0.70210   0.75000
O          O       0.23240   0.70210   0.75000
O          O       0.50000   0.73780   0.07660
O          O       0.50000   0.73780   0.42340
O          O       0.50000   0.26220   0.92340
O          O       0.50000   0.26220   0.57660
O          O       0.50000   0.64740   0.25000
O          O       0.50000   0.35260   0.75000
O          O       0.50000   0.00000   0.00000
O          O       0.50000   1.00000   0.50000
