data_crystal

_cell_length_a    12.28615
_cell_length_b    12.28615
_cell_length_c    12.52230
_cell_angle_alpha 69.21453
_cell_angle_beta  69.21453
_cell_angle_gamma 69.87596

_space_group_name_Hall 'P 1'
_space_group_name_H-M_alt 'P 1'

loop_
_symmetry_equiv_pos_as_xyz
 'x,y,z'

loop_
_atom_site_label
_atom_site_type_symbol
_atom_site_fract_x
_atom_site_fract_y
_atom_site_fract_z
O          O       0.73320   0.92080   0.25500
O          O       0.07920   0.26680   0.74500
O          O       0.26680   0.07920   0.74500
O          O       0.92080   0.73320   0.25500
O          O       0.59970   0.13790   0.27170
O          O       0.86210   0.40030   0.72830
O          O       0.40030   0.86210   0.72830
O          O       0.13790   0.59970   0.27170
O          O       0.62470   0.06270   0.09100
O          O       0.93730   0.37530   0.90900
O          O       0.37530   0.93730   0.90900
O          O       0.06270   0.62470   0.09100
O          O       0.49760   0.96880   0.30190
O          O       0.03120   0.50240   0.69810
O          O       0.50240   0.03120   0.69810
O          O       0.96880   0.49760   0.30190
O          O       0.63880   0.14760   0.86480
O          O       0.85240   0.36120   0.13520
O          O       0.36120   0.85240   0.13520
O          O       0.14760   0.63880   0.86480
O          O       0.49020   0.30460   0.74220
O          O       0.69540   0.50980   0.25780
O          O       0.50980   0.69540   0.25780
O          O       0.30460   0.49020   0.74220
O          O       0.66800   0.14480   0.64730
O          O       0.85520   0.33200   0.35270
O          O       0.33200   0.85520   0.35270
O          O       0.14480   0.66800   0.64730
O          O       0.71490   0.31850   0.68470
O          O       0.68150   0.28510   0.31530
O          O       0.28510   0.68150   0.31530
O          O       0.31850   0.71490   0.68470
O          O       0.08120   0.26660   0.05030
O          O       0.73340   0.91880   0.94970
O          O       0.91880   0.73340   0.94970
O          O       0.26660   0.08120   0.05030
O          O       1.00000   0.50000   0.00000
O          O       0.50000   0.00000   0.00000
O          O       0.08050   0.26730   0.35550
O          O       0.73270   0.91950   0.64450
O          O       0.91950   0.73270   0.64450
O          O       0.26730   0.08050   0.35550
O          O       0.91130   0.36430   0.52030
O          O       0.63570   0.08870   0.47970
O          O       0.08870   0.63570   0.47970
O          O       0.36430   0.91130   0.52030
O          O       0.72820   0.54080   0.58310
O          O       0.45920   0.27180   0.41690
O          O       0.27180   0.45920   0.41690
O          O       0.54080   0.72820   0.58310
O          O       0.70560   0.70560   0.68410
O          O       0.29440   0.29440   0.31590
O          O       0.75670   0.75670   0.84570
O          O       0.24330   0.24330   0.15430
O          O       0.29330   0.29330   0.71320
O          O       0.70670   0.70670   0.28680
O          O       0.24570   0.24570   0.54790
O          O       0.75430   0.75430   0.45210
O          O       0.29630   0.29630   0.92180
O          O       0.70370   0.70370   0.07820
Si         Si      0.61360   0.02240   0.23080
Si         Si      0.97760   0.38640   0.76920
Si         Si      0.38640   0.97760   0.76920
Si         Si      0.02240   0.61360   0.23080
Si         Si      0.62750   0.22950   0.73460
Si         Si      0.77050   0.37250   0.26540
Si         Si      0.37250   0.77050   0.26540
Si         Si      0.22950   0.62750   0.73460
Si         Si      0.96770   0.37610   0.02350
Si         Si      0.62390   0.03230   0.97650
Si         Si      0.03230   0.62390   0.97650
Si         Si      0.37610   0.96770   0.02350
Si         Si      0.95500   0.36560   0.38260
Si         Si      0.63440   0.04500   0.61740
Si         Si      0.04500   0.63440   0.61740
Si         Si      0.36560   0.95500   0.38260
Si         Si      0.80450   0.40590   0.62870
Si         Si      0.59410   0.19550   0.37130
Si         Si      0.19550   0.59410   0.37130
Si         Si      0.40590   0.80450   0.62870
Si         Si      0.77880   0.77880   0.70580
Si         Si      0.22120   0.22120   0.29420
Si         Si      0.22130   0.22130   0.68860
Si         Si      0.77870   0.77870   0.31140
Si         Si      0.34550   0.34550   0.78070
Si         Si      0.65450   0.65450   0.21930
Si         Si      0.22230   0.22230   0.04410
Si         Si      0.77770   0.77770   0.95590
Si         Si      0.31810   0.31810   0.42330
Si         Si      0.68190   0.68190   0.57670
