data_crystal

_cell_length_a    8.59663
_cell_length_b    8.59663
_cell_length_c    14.04600
_cell_angle_alpha 90.00000
_cell_angle_beta  90.00000
_cell_angle_gamma 109.76916

_space_group_name_Hall 'P 1'
_space_group_name_H-M_alt 'P 1'

loop_
_symmetry_equiv_pos_as_xyz
 'x,y,z'

loop_
_atom_site_label
_atom_site_type_symbol
_atom_site_fract_x
_atom_site_fract_y
_atom_site_fract_z
O          O       0.88850   0.11150   0.04840
O          O       0.11150   0.88850   0.54840
O          O       0.11150   0.88850   0.95160
O          O       0.88850   0.11150   0.45160
O          O       0.65130   0.99010   0.92270
O          O       0.00990   0.34870   0.92270
O          O       0.99010   0.65130   0.42270
O          O       0.34870   0.00990   0.42270
O          O       0.34870   0.00990   0.07730
O          O       0.99010   0.65130   0.07730
O          O       0.00990   0.34870   0.57730
O          O       0.65130   0.99010   0.57730
O          O       0.79790   0.79790   1.00000
O          O       0.20210   0.20210   0.00000
O          O       0.79790   0.79790   0.50000
O          O       0.20210   0.20210   0.50000
O          O       0.60000   0.90540   0.10290
O          O       0.09460   0.40000   0.10290
O          O       0.90540   0.60000   0.60290
O          O       0.40000   0.09460   0.60290
O          O       0.40000   0.09460   0.89710
O          O       0.90540   0.60000   0.89710
O          O       0.09460   0.40000   0.39710
O          O       0.60000   0.90540   0.39710
O          O       0.57010   0.05170   0.75000
O          O       0.94830   0.42990   0.75000
O          O       0.05170   0.57010   0.25000
O          O       0.42990   0.94830   0.25000
O          O       0.70340   0.29660   0.86910
O          O       0.29660   0.70340   0.36910
O          O       0.29660   0.70340   0.13090
O          O       0.70340   0.29660   0.63090
Si         Si      0.73460   0.95140   0.01840
Si         Si      0.04860   0.26540   0.01840
Si         Si      0.95140   0.73460   0.51840
Si         Si      0.26540   0.04860   0.51840
Si         Si      0.26540   0.04860   0.98160
Si         Si      0.95140   0.73460   0.98160
Si         Si      0.04860   0.26540   0.48160
Si         Si      0.73460   0.95140   0.48160
Si         Si      0.58120   0.10820   0.85980
Si         Si      0.89180   0.41880   0.85980
Si         Si      0.10820   0.58120   0.35980
Si         Si      0.41880   0.89180   0.35980
Si         Si      0.41880   0.89180   0.14020
Si         Si      0.10820   0.58120   0.14020
Si         Si      0.89180   0.41880   0.64020
Si         Si      0.58120   0.10820   0.64020
