data_crystal

_cell_length_a    8.91400
_cell_length_b    9.20900
_cell_length_c    16.08700
_cell_angle_alpha 90.00000
_cell_angle_beta  90.00000
_cell_angle_gamma 90.00000

_space_group_name_Hall 'P 1'
_space_group_name_H-M_alt 'P 1'

loop_
_symmetry_equiv_pos_as_xyz
 'x,y,z'

loop_
_atom_site_label
_atom_site_type_symbol
_atom_site_fract_x
_atom_site_fract_y
_atom_site_fract_z
Si         Si      0.15480   0.85930   0.38920
Si         Si      0.34520   0.85930   0.88920
Si         Si      0.65480   0.14070   0.38920
Si         Si      0.84520   0.14070   0.88920
Si         Si      0.04530   0.64340   0.07220
Si         Si      0.45470   0.64340   0.57220
Si         Si      0.54530   0.35660   0.07220
Si         Si      0.95470   0.35660   0.57220
Si         Si      0.19920   0.41810   0.34260
Si         Si      0.30080   0.41810   0.84260
Si         Si      0.69920   0.58190   0.34260
Si         Si      0.80080   0.58190   0.84260
Si         Si      0.98410   0.33280   0.76240
Si         Si      0.51590   0.33280   0.26240
Si         Si      0.48410   0.66720   0.76240
Si         Si      0.01590   0.66720   0.26240
Si         Si      0.15020   0.59850   0.50120
Si         Si      0.34980   0.59850   0.00120
Si         Si      0.65020   0.40150   0.50120
Si         Si      0.84980   0.40150   0.00120
Si         Si      0.00690   0.17090   0.41440
Si         Si      0.49310   0.17090   0.91440
Si         Si      0.50690   0.82910   0.41440
Si         Si      0.99310   0.82910   0.91440
O          O       0.33520   0.85570   0.38750
O          O       0.16480   0.85570   0.88750
O          O       0.83520   0.14430   0.38750
O          O       0.66480   0.14430   0.88750
O          O       0.09310   0.74550   0.45720
O          O       0.40690   0.74550   0.95720
O          O       0.59310   0.25450   0.45720
O          O       0.90690   0.25450   0.95720
O          O       0.09020   0.81300   0.29950
O          O       0.40980   0.81300   0.79950
O          O       0.59020   0.18700   0.29950
O          O       0.90980   0.18700   0.79950
O          O       0.09760   0.01980   0.41270
O          O       0.40240   0.01980   0.91270
O          O       0.59760   0.98020   0.41270
O          O       0.90240   0.98020   0.91270
O          O       0.14140   0.36210   0.80840
O          O       0.35860   0.36210   0.30840
O          O       0.64140   0.63790   0.80840
O          O       0.85860   0.63790   0.30840
O          O       0.87110   0.46630   0.77840
O          O       0.62890   0.46630   0.27840
O          O       0.37110   0.53370   0.77840
O          O       0.12890   0.53370   0.27840
O          O       0.01180   0.31510   0.66410
O          O       0.48820   0.31510   0.16410
O          O       0.51180   0.68490   0.66410
O          O       0.98820   0.68490   0.16410
O          O       0.98600   0.76250   0.00680
O          O       0.51400   0.76250   0.50680
O          O       0.48600   0.23750   0.00680
O          O       0.01400   0.23750   0.50680
O          O       0.22600   0.64060   0.07000
O          O       0.27400   0.64060   0.57000
O          O       0.72600   0.35940   0.07000
O          O       0.77400   0.35940   0.57000
O          O       0.98610   0.48450   0.04640
O          O       0.51390   0.48450   0.54640
O          O       0.48610   0.51550   0.04640
O          O       0.01390   0.51550   0.54640
O          O       0.08550   0.28300   0.35110
O          O       0.41450   0.28300   0.85110
O          O       0.58550   0.71700   0.35110
O          O       0.91450   0.71700   0.85110
O          O       0.22250   0.49340   0.43200
O          O       0.27750   0.49340   0.93200
O          O       0.72250   0.50660   0.43200
O          O       0.77750   0.50660   0.93200
