data_crystal

_cell_length_a    11.69394
_cell_length_b    18.76610
_cell_length_c    18.76610
_cell_angle_alpha 90.00000
_cell_angle_beta  90.00000
_cell_angle_gamma 90.00000

_space_group_name_Hall 'P 1'
_space_group_name_H-M_alt 'P 1'

loop_
_symmetry_equiv_pos_as_xyz
 'x,y,z'

loop_
_atom_site_label
_atom_site_type_symbol
_atom_site_fract_x
_atom_site_fract_y
_atom_site_fract_z
Si         Si      0.26596   0.19875   0.01200
Si         Si      0.26596   0.80125   0.98800
Si         Si      0.76596   0.69875   0.48800
Si         Si      0.76596   0.30125   0.51200
Si         Si      0.26596   0.01200   0.19875
Si         Si      0.26596   0.98800   0.80125
Si         Si      0.76596   0.51200   0.30125
Si         Si      0.76596   0.48800   0.69875
Si         Si      0.73404   0.80125   0.98800
Si         Si      0.73404   0.19875   0.01200
Si         Si      0.23404   0.30125   0.51200
Si         Si      0.23404   0.69875   0.48800
Si         Si      0.73404   0.98800   0.80125
Si         Si      0.73404   0.01200   0.19875
Si         Si      0.23404   0.48800   0.69875
Si         Si      0.23404   0.51200   0.30125
Si         Si      0.36917   0.26078   0.14372
Si         Si      0.36917   0.73922   0.85628
Si         Si      0.86917   0.76078   0.35628
Si         Si      0.86917   0.23922   0.64372
Si         Si      0.36917   0.14372   0.26078
Si         Si      0.36917   0.85628   0.73922
Si         Si      0.86917   0.64372   0.23922
Si         Si      0.86917   0.35628   0.76078
Si         Si      0.63083   0.73922   0.85628
Si         Si      0.63083   0.26078   0.14372
Si         Si      0.13083   0.23922   0.64372
Si         Si      0.13083   0.76078   0.35628
Si         Si      0.63083   0.85628   0.73922
Si         Si      0.63083   0.14372   0.26078
Si         Si      0.13083   0.35628   0.76078
Si         Si      0.13083   0.64372   0.23922
Si         Si      0.36873   0.37479   0.25837
Si         Si      0.36873   0.62521   0.74163
Si         Si      0.86873   0.87479   0.24163
Si         Si      0.86873   0.12521   0.75837
Si         Si      0.36873   0.25837   0.37479
Si         Si      0.36873   0.74163   0.62521
Si         Si      0.86873   0.75837   0.12521
Si         Si      0.86873   0.24163   0.87479
Si         Si      0.63127   0.62521   0.74163
Si         Si      0.63127   0.37479   0.25837
Si         Si      0.13127   0.12521   0.75837
Si         Si      0.13127   0.87479   0.24163
Si         Si      0.63127   0.74163   0.62521
Si         Si      0.63127   0.25837   0.37479
Si         Si      0.13127   0.24163   0.87479
Si         Si      0.13127   0.75837   0.12521
Si         Si      0.13741   0.05736   0.05736
Si         Si      0.13741   0.94264   0.94264
Si         Si      0.63741   0.55736   0.44264
Si         Si      0.63741   0.44264   0.55736
Si         Si      0.86259   0.94264   0.94264
Si         Si      0.86259   0.05736   0.05736
Si         Si      0.36259   0.44264   0.55736
Si         Si      0.36259   0.55736   0.44264
Si         Si      0.50000   0.11698   0.00393
Si         Si      0.50000   0.88302   0.99607
Si         Si      1.00000   0.61698   0.49607
Si         Si      0.00000   0.38302   0.50393
Si         Si      0.50000   0.00393   0.11698
Si         Si      0.50000   0.99607   0.88302
Si         Si      0.00000   0.50393   0.38302
Si         Si      1.00000   0.49607   0.61698
O          O       0.18251   0.00000   0.00000
O          O       0.68251   0.50000   0.50000
O          O       0.81749   0.00000   0.00000
O          O       0.31749   0.50000   0.50000
O          O       0.00000   0.05726   0.05726
O          O       1.00000   0.94274   0.94274
O          O       0.50000   0.55726   0.44274
O          O       0.50000   0.44274   0.55726
O          O       0.18121   0.13611   0.03719
O          O       0.18121   0.86389   0.96281
O          O       0.68121   0.63611   0.46281
O          O       0.68121   0.36389   0.53719
O          O       0.18121   0.03719   0.13611
O          O       0.18121   0.96281   0.86389
O          O       0.68121   0.53719   0.36389
O          O       0.68121   0.46281   0.63611
O          O       0.81879   0.86389   0.96281
O          O       0.81879   0.13611   0.03719
O          O       0.31879   0.36389   0.53719
O          O       0.31879   0.63611   0.46281
O          O       0.81879   0.96281   0.86389
O          O       0.81879   0.03719   0.13611
O          O       0.31879   0.46281   0.63611
O          O       0.31879   0.53719   0.36389
O          O       0.21207   0.23909   0.94418
O          O       0.21207   0.76091   0.05582
O          O       0.71207   0.73909   0.55582
O          O       0.71207   0.26091   0.44418
O          O       0.21207   0.94418   0.23909
O          O       0.21207   0.05582   0.76091
O          O       0.71207   0.44418   0.26091
O          O       0.71207   0.55582   0.73909
O          O       0.78793   0.76091   0.05582
O          O       0.78793   0.23909   0.94418
O          O       0.28793   0.26091   0.44418
O          O       0.28793   0.73909   0.55582
O          O       0.78793   0.05582   0.76091
O          O       0.78793   0.94418   0.23909
O          O       0.28793   0.55582   0.73909
O          O       0.28793   0.44418   0.26091
O          O       0.38777   0.16484   0.99098
O          O       0.38777   0.83516   0.00902
O          O       0.88777   0.66484   0.50902
O          O       0.88777   0.33516   0.49098
O          O       0.38777   0.99098   0.16484
O          O       0.38777   0.00902   0.83516
O          O       0.88777   0.49098   0.33516
O          O       0.88777   0.50902   0.66484
O          O       0.61223   0.83516   0.00902
O          O       0.61223   0.16484   0.99098
O          O       0.11223   0.33516   0.49098
O          O       0.11223   0.66484   0.50902
O          O       0.61223   0.00902   0.83516
O          O       0.61223   0.99098   0.16484
O          O       0.11223   0.50902   0.66484
O          O       0.11223   0.49098   0.33516
O          O       0.50000   0.05313   0.94687
O          O       0.50000   0.94687   0.05313
O          O       0.00000   0.55313   0.55313
O          O       0.00000   0.44687   0.44687
O          O       0.50000   0.08268   0.08268
O          O       0.50000   0.91732   0.91732
O          O       0.00000   0.58268   0.41732
O          O       0.00000   0.41732   0.58268
O          O       0.28585   0.25506   0.07561
O          O       0.28585   0.74494   0.92439
O          O       0.78585   0.75506   0.42439
O          O       0.78585   0.24494   0.57561
O          O       0.28585   0.07561   0.25506
O          O       0.28585   0.92439   0.74494
O          O       0.78585   0.57561   0.24494
O          O       0.78585   0.42439   0.75506
O          O       0.71415   0.74494   0.92439
O          O       0.71415   0.25506   0.07561
O          O       0.21415   0.24494   0.57561
O          O       0.21415   0.75506   0.42439
O          O       0.71415   0.92439   0.74494
O          O       0.71415   0.07561   0.25506
O          O       0.21415   0.42439   0.75506
O          O       0.21415   0.57561   0.24494
O          O       0.33379   0.19953   0.19953
O          O       0.33379   0.80047   0.80047
O          O       0.83379   0.69953   0.30047
O          O       0.83379   0.30047   0.69953
O          O       0.66621   0.80047   0.80047
O          O       0.66621   0.19953   0.19953
O          O       0.16621   0.30047   0.69953
O          O       0.16621   0.69953   0.30047
O          O       0.50000   0.24971   0.11938
O          O       0.50000   0.75029   0.88062
O          O       0.00000   0.74971   0.38062
O          O       0.00000   0.25029   0.61938
O          O       0.50000   0.11938   0.24971
O          O       0.50000   0.88062   0.75029
O          O       0.00000   0.61938   0.25029
O          O       0.00000   0.38062   0.74971
O          O       0.35565   0.33731   0.18158
O          O       0.35565   0.66269   0.81842
O          O       0.85565   0.83731   0.31842
O          O       0.85565   0.16269   0.68158
O          O       0.35565   0.18158   0.33731
O          O       0.35565   0.81842   0.66269
O          O       0.85565   0.68158   0.16269
O          O       0.85565   0.31842   0.83731
O          O       0.64435   0.66269   0.81842
O          O       0.64435   0.33731   0.18158
O          O       0.14435   0.16269   0.68158
O          O       0.14435   0.83731   0.31842
O          O       0.64435   0.81842   0.66269
O          O       0.64435   0.18158   0.33731
O          O       0.14435   0.31842   0.83731
O          O       0.14435   0.68158   0.16269
O          O       0.33073   0.31980   0.31980
O          O       0.33073   0.68020   0.68020
O          O       0.83073   0.81980   0.18020
O          O       0.83073   0.18020   0.81980
O          O       0.66927   0.68020   0.68020
O          O       0.66927   0.31980   0.31980
O          O       0.16927   0.18020   0.81980
O          O       0.16927   0.81980   0.18020
O          O       0.50000   0.39776   0.27032
O          O       0.50000   0.60224   0.72968
O          O       0.00000   0.89776   0.22968
O          O       0.00000   0.10224   0.77032
O          O       0.50000   0.27032   0.39776
O          O       0.50000   0.72968   0.60224
O          O       1.00000   0.77032   0.10224
O          O       0.00000   0.22968   0.89776
