data_crystal

_cell_length_a    8.22809
_cell_length_b    11.95810
_cell_length_c    37.89111
_cell_angle_alpha 90.00000
_cell_angle_beta  90.00000
_cell_angle_gamma 110.12310

_space_group_name_Hall 'P 1'
_space_group_name_H-M_alt 'P 1'

loop_
_symmetry_equiv_pos_as_xyz
 'x,y,z'

loop_
_atom_site_label
_atom_site_type_symbol
_atom_site_fract_x
_atom_site_fract_y
_atom_site_fract_z
O          O       0.29979   0.08498   0.05262
O          O       0.21481   0.91502   0.94738
O          O       0.71481   0.91502   0.55262
O          O       0.79979   0.08498   0.44738
O          O       0.70021   0.91502   0.94738
O          O       0.78519   0.08498   0.05262
O          O       0.28519   0.08498   0.44738
O          O       0.20021   0.91502   0.55262
O          O       0.34068   0.27454   0.01419
O          O       0.06614   0.72546   0.98581
O          O       0.56614   0.72546   0.51419
O          O       0.84068   0.27454   0.48581
O          O       0.65932   0.72546   0.98581
O          O       0.93386   0.27454   0.01419
O          O       0.43386   0.27454   0.48581
O          O       0.15932   0.72546   0.51419
O          O       0.43953   0.29842   0.08077
O          O       0.14111   0.70158   0.91923
O          O       0.64111   0.70158   0.58077
O          O       0.93953   0.29842   0.41923
O          O       0.56047   0.70158   0.91923
O          O       0.85889   0.29842   0.08077
O          O       0.35889   0.29842   0.41923
O          O       0.06047   0.70158   0.58077
O          O       0.10858   0.21716   0.06507
O          O       0.89142   0.78284   0.93493
O          O       0.39142   0.78284   0.56507
O          O       0.60858   0.21716   0.43493
O          O       0.35707   0.23212   0.14631
O          O       0.12495   0.76788   0.85369
O          O       0.62495   0.76788   0.64631
O          O       0.85707   0.23212   0.35369
O          O       0.64293   0.76788   0.85369
O          O       0.87505   0.23212   0.14631
O          O       0.37505   0.23212   0.35369
O          O       0.14293   0.76788   0.64631
O          O       0.31429   0.02304   0.11844
O          O       0.29125   0.97696   0.88156
O          O       0.79125   0.97696   0.61844
O          O       0.81429   0.02304   0.38156
O          O       0.68571   0.97696   0.88156
O          O       0.70875   0.02304   0.11844
O          O       0.20875   0.02304   0.38156
O          O       0.18571   0.97696   0.61844
O          O       0.22085   0.03592   0.18373
O          O       0.18493   0.96408   0.81627
O          O       0.68493   0.96408   0.68373
O          O       0.72085   0.03592   0.31627
O          O       0.77915   0.96408   0.81627
O          O       0.81507   0.03592   0.18373
O          O       0.31507   0.03592   0.31627
O          O       0.27915   0.96408   0.68373
O          O       0.04271   0.08542   0.13218
O          O       0.95729   0.91458   0.86782
O          O       0.45729   0.91458   0.63218
O          O       0.54271   0.08542   0.36782
O          O       0.50000   0.50000   1.00000
O          O       0.00000   0.50000   0.00000
O          O       0.50000   0.50000   0.50000
O          O       0.00000   0.50000   0.50000
O          O       0.32236   0.64472   0.99502
O          O       0.67764   0.35528   0.00498
O          O       0.17764   0.35528   0.49502
O          O       0.82236   0.64472   0.50498
O          O       0.52806   0.65942   0.04927
O          O       0.86864   0.34058   0.95073
O          O       0.36864   0.34058   0.54927
O          O       0.02806   0.65942   0.45073
O          O       0.47194   0.34058   0.95073
O          O       0.13136   0.65942   0.04927
O          O       0.63136   0.65942   0.45073
O          O       0.97194   0.34058   0.54927
O          O       0.44016   0.45754   0.12902
O          O       0.98262   0.54246   0.87098
O          O       0.48262   0.54246   0.62902
O          O       0.94016   0.45754   0.37098
O          O       0.55984   0.54246   0.87098
O          O       0.01738   0.45754   0.12902
O          O       0.51738   0.45754   0.37098
O          O       0.05984   0.54246   0.62902
O          O       0.67900   0.35800   0.13026
O          O       0.32100   0.64200   0.86974
O          O       0.82100   0.64200   0.63026
O          O       0.17900   0.35800   0.36974
O          O       0.70072   0.81914   0.29757
O          O       0.88158   0.18086   0.70243
O          O       0.38158   0.18086   0.79757
O          O       0.20072   0.81914   0.20243
O          O       0.29928   0.18086   0.70243
O          O       0.11842   0.81914   0.29757
O          O       0.61842   0.81914   0.20243
O          O       0.79928   0.18086   0.79757
O          O       0.57603   0.65206   0.25000
O          O       0.92397   0.34794   0.75000
O          O       0.42397   0.34794   0.75000
O          O       0.07603   0.65206   0.25000
O          O       0.51849   0.60240   0.31807
O          O       0.91609   0.39760   0.68193
O          O       0.41609   0.39760   0.81807
O          O       0.01849   0.60240   0.18193
O          O       0.48151   0.39760   0.68193
O          O       0.08391   0.60240   0.31807
O          O       0.58391   0.60240   0.18193
O          O       0.98151   0.39760   0.81807
O          O       0.36739   0.73478   0.28544
O          O       0.63261   0.26522   0.71456
O          O       0.13261   0.26522   0.78544
O          O       0.86739   0.73478   0.21456
O          O       0.74372   0.98744   0.25000
O          O       0.75628   0.01256   0.75000
O          O       0.25628   0.01256   0.75000
O          O       0.24372   0.98744   0.25000
O          O       0.49813   0.99626   0.20670
O          O       0.50187   0.00374   0.79330
O          O       0.00187   0.00374   0.70670
O          O       0.99813   0.99626   0.29330
O          O       0.60445   0.68558   0.11717
O          O       0.91887   0.31442   0.88283
O          O       0.41887   0.31442   0.61717
O          O       0.10445   0.68558   0.38283
O          O       0.39555   0.31442   0.88283
O          O       0.08113   0.68558   0.11717
O          O       0.58113   0.68558   0.38283
O          O       0.89555   0.31442   0.61717
O          O       0.30858   0.61716   0.15085
O          O       0.69142   0.38284   0.84915
O          O       0.19142   0.38284   0.65085
O          O       0.80858   0.61716   0.34915
O          O       0.73427   0.86470   0.07301
O          O       0.86957   0.13530   0.92699
O          O       0.36957   0.13530   0.57301
O          O       0.23427   0.86470   0.42699
O          O       0.26573   0.13530   0.92699
O          O       0.13043   0.86470   0.07301
O          O       0.63043   0.86470   0.42699
O          O       0.76573   0.13530   0.57301
O          O       0.84080   0.68160   0.07110
O          O       0.15920   0.31840   0.92890
O          O       0.65920   0.31840   0.57110
O          O       0.34080   0.68160   0.42890
O          O       0.47142   0.94284   0.06929
O          O       0.52858   0.05716   0.93071
O          O       0.02858   0.05716   0.56929
O          O       0.97142   0.94284   0.43071
Si         Si      0.29738   0.21906   0.05324
Si         Si      0.07832   0.78094   0.94676
Si         Si      0.57832   0.78094   0.55324
Si         Si      0.79738   0.21906   0.44676
Si         Si      0.70262   0.78094   0.94676
Si         Si      0.92168   0.21906   0.05324
Si         Si      0.42168   0.21906   0.44676
Si         Si      0.20262   0.78094   0.55324
Si         Si      0.23324   0.09456   0.14514
Si         Si      0.13868   0.90544   0.85486
Si         Si      0.63868   0.90544   0.64514
Si         Si      0.73324   0.09456   0.35486
Si         Si      0.76676   0.90544   0.85486
Si         Si      0.86132   0.09456   0.14514
Si         Si      0.36132   0.09456   0.35486
Si         Si      0.26676   0.90544   0.64514
Si         Si      0.50250   0.63270   0.00761
Si         Si      0.86980   0.36730   0.99239
Si         Si      0.36980   0.36730   0.50761
Si         Si      0.00250   0.63270   0.49239
Si         Si      0.49750   0.36730   0.99239
Si         Si      0.13020   0.63270   0.00761
Si         Si      0.63020   0.63270   0.49239
Si         Si      0.99750   0.36730   0.50761
Si         Si      0.47923   0.33674   0.12148
Si         Si      0.14249   0.66326   0.87852
Si         Si      0.64249   0.66326   0.62148
Si         Si      0.97923   0.33674   0.37852
Si         Si      0.52077   0.66326   0.87852
Si         Si      0.85751   0.33674   0.12148
Si         Si      0.35751   0.33674   0.37852
Si         Si      0.02077   0.66326   0.62148
Si         Si      0.54020   0.70096   0.28778
Si         Si      0.83924   0.29904   0.71222
Si         Si      0.33924   0.29904   0.78778
Si         Si      0.04020   0.70096   0.21222
Si         Si      0.45980   0.29904   0.71222
Si         Si      0.16076   0.70096   0.28778
Si         Si      0.66076   0.70096   0.21222
Si         Si      0.95980   0.29904   0.78778
Si         Si      0.66750   0.95898   0.21065
Si         Si      0.70852   0.04102   0.78935
Si         Si      0.20852   0.04102   0.71065
Si         Si      0.16750   0.95898   0.28935
Si         Si      0.33250   0.04102   0.78935
Si         Si      0.29148   0.95898   0.21065
Si         Si      0.79148   0.95898   0.28935
Si         Si      0.83250   0.04102   0.71065
Si         Si      0.48476   0.58980   0.14468
Si         Si      0.89496   0.41020   0.85532
Si         Si      0.39496   0.41020   0.64468
Si         Si      0.98476   0.58980   0.35532
Si         Si      0.51524   0.41020   0.85532
Si         Si      0.10504   0.58980   0.14468
Si         Si      0.60504   0.58980   0.35532
Si         Si      0.01524   0.41020   0.64468
Si         Si      0.67624   0.72254   0.07780
Si         Si      0.95370   0.27746   0.92220
Si         Si      0.45370   0.27746   0.57780
Si         Si      0.17624   0.72254   0.42220
Si         Si      0.32376   0.27746   0.92220
Si         Si      0.04630   0.72254   0.07780
Si         Si      0.54630   0.72254   0.42220
Si         Si      0.82376   0.27746   0.57780
Si         Si      0.67434   0.97840   0.07814
Si         Si      0.69594   0.02160   0.92186
Si         Si      0.19594   0.02160   0.57814
Si         Si      0.17434   0.97840   0.42186
Si         Si      0.32566   0.02160   0.92186
Si         Si      0.30406   0.97840   0.07814
Si         Si      0.80406   0.97840   0.42186
Si         Si      0.82566   0.02160   0.57814
