data_crystal

_cell_length_a    8.64500
_cell_length_b    14.68900
_cell_length_c    18.94100
_cell_angle_alpha 90.00000
_cell_angle_beta  90.00000
_cell_angle_gamma 90.00000

_space_group_name_Hall 'P 1'
_space_group_name_H-M_alt 'P 1'

loop_
_symmetry_equiv_pos_as_xyz
 'x,y,z'

loop_
_atom_site_label
_atom_site_type_symbol
_atom_site_fract_x
_atom_site_fract_y
_atom_site_fract_z
Si         Si      0.20540   0.36880   0.35130
Si         Si      0.29460   0.13120   0.85130
Si         Si      0.20540   0.63120   0.14870
Si         Si      0.29460   0.86880   0.64870
Si         Si      0.79460   0.63120   0.64870
Si         Si      0.70540   0.86880   0.14870
Si         Si      0.79460   0.36880   0.85130
Si         Si      0.70540   0.13120   0.35130
Si         Si      0.41920   0.50710   0.39850
Si         Si      0.08080   0.99290   0.89850
Si         Si      0.41920   0.49290   0.10150
Si         Si      0.08080   0.00710   0.60150
Si         Si      0.58080   0.49290   0.60150
Si         Si      0.91920   0.00710   0.10150
Si         Si      0.58080   0.50710   0.89850
Si         Si      0.91920   0.99290   0.39850
Si         Si      0.59060   0.78080   0.59030
Si         Si      0.90940   0.71920   0.09030
Si         Si      0.59060   0.21920   0.90970
Si         Si      0.90940   0.28080   0.40970
Si         Si      0.40940   0.21920   0.40970
Si         Si      0.09060   0.28080   0.90970
Si         Si      0.40940   0.78080   0.09030
Si         Si      0.09060   0.71920   0.59030
Si         Si      0.37920   0.62890   0.52540
Si         Si      0.12080   0.87110   0.02540
Si         Si      0.37920   0.37110   0.97460
Si         Si      0.12080   0.12890   0.47460
Si         Si      0.62080   0.37110   0.47460
Si         Si      0.87920   0.12890   0.97460
Si         Si      0.62080   0.62890   0.02540
Si         Si      0.87920   0.87110   0.52540
Si         Si      0.17200   0.00000   0.75000
Si         Si      0.32800   0.50000   0.25000
Si         Si      0.82800   0.00000   0.25000
Si         Si      0.67200   0.50000   0.75000
O          O       0.27330   0.43990   0.40830
O          O       0.22670   0.06010   0.90830
O          O       0.27330   0.56010   0.09170
O          O       0.22670   0.93990   0.59170
O          O       0.72670   0.56010   0.59170
O          O       0.77330   0.93990   0.09170
O          O       0.72670   0.43990   0.90830
O          O       0.77330   0.06010   0.40830
O          O       0.39310   0.59840   0.44390
O          O       0.10690   0.90160   0.94390
O          O       0.39310   0.40160   0.05610
O          O       0.10690   0.09840   0.55610
O          O       0.60690   0.40160   0.55610
O          O       0.89310   0.09840   0.05610
O          O       0.60690   0.59840   0.94390
O          O       0.89310   0.90160   0.44390
O          O       0.49370   0.71310   0.54020
O          O       0.00630   0.78690   0.04020
O          O       0.49370   0.28690   0.95980
O          O       0.00630   0.21310   0.45980
O          O       0.50630   0.28690   0.45980
O          O       0.99370   0.21310   0.95980
O          O       0.50630   0.71310   0.04020
O          O       0.99370   0.78690   0.54020
O          O       0.69250   0.72280   0.64550
O          O       0.80750   0.77720   0.14550
O          O       0.69250   0.27720   0.85450
O          O       0.80750   0.22280   0.35450
O          O       0.30750   0.27720   0.35450
O          O       0.19250   0.22280   0.85450
O          O       0.30750   0.72280   0.14550
O          O       0.19250   0.77720   0.64550
O          O       0.22130   0.41590   0.27470
O          O       0.27870   0.08410   0.77470
O          O       0.22130   0.58410   0.22530
O          O       0.27870   0.91590   0.72530
O          O       0.77870   0.58410   0.72530
O          O       0.72130   0.91590   0.22530
O          O       0.77870   0.41590   0.77470
O          O       0.72130   0.08410   0.27470
O          O       0.43440   0.53060   0.31570
O          O       0.06560   0.96940   0.81570
O          O       0.43440   0.46940   0.18430
O          O       0.06560   0.03060   0.68430
O          O       0.56560   0.46940   0.68430
O          O       0.93440   0.03060   0.18430
O          O       0.56560   0.53060   0.81570
O          O       0.93440   0.96940   0.31570
O          O       0.42680   0.54430   0.57500
O          O       0.07320   0.95570   0.07500
O          O       0.42680   0.45570   0.92500
O          O       0.07320   0.04430   0.42500
O          O       0.57320   0.45570   0.42500
O          O       0.92680   0.04430   0.92500
O          O       0.57320   0.54430   0.07500
O          O       0.92680   0.95570   0.57500
O          O       0.02700   0.34630   0.36770
O          O       0.47300   0.15370   0.86770
O          O       0.02700   0.65370   0.13230
O          O       0.47300   0.84630   0.63230
O          O       0.97300   0.65370   0.63230
O          O       0.52700   0.84630   0.13230
O          O       0.97300   0.34630   0.86770
O          O       0.52700   0.15370   0.36770
O          O       0.70360   0.84180   0.54210
O          O       0.79640   0.65820   0.04210
O          O       0.70360   0.15820   0.95790
O          O       0.79640   0.34180   0.45790
O          O       0.29640   0.15820   0.45790
O          O       0.20360   0.34180   0.95790
O          O       0.29640   0.84180   0.04210
O          O       0.20360   0.65820   0.54210
