data_crystal

_cell_length_a    12.92023
_cell_length_b    12.92023
_cell_length_c    12.92023
_cell_angle_alpha 109.47122
_cell_angle_beta  109.47122
_cell_angle_gamma 109.47122

_space_group_name_Hall 'P 1'
_space_group_name_H-M_alt 'P 1'

loop_
_symmetry_equiv_pos_as_xyz
 'x,y,z'

loop_
_atom_site_label
_atom_site_type_symbol
_atom_site_fract_x
_atom_site_fract_y
_atom_site_fract_z
O          O       0.46420   0.00000   0.79540
O          O       0.66880   0.20460   0.20460
O          O       0.46420   0.79540   0.00000
O          O       0.46420   0.66880   0.46420
O          O       0.66880   0.46420   0.46420
O          O       0.46420   0.46420   0.66880
O          O       0.79540   0.33120   0.79540
O          O       0.00000   0.53580   0.20460
O          O       0.20460   0.53580   0.00000
O          O       0.79540   1.00000   0.46420
O          O       0.00000   0.79540   0.46420
O          O       0.20460   0.20460   0.66880
O          O       0.79540   0.79540   0.33120
O          O       0.00000   0.20460   0.53580
O          O       0.20460   0.00000   0.53580
O          O       0.79540   0.46420   1.00000
O          O       0.00000   0.46420   0.79540
O          O       0.20460   0.66880   0.20460
O          O       0.53580   0.00000   0.20460
O          O       0.33120   0.79540   0.79540
O          O       0.53580   0.20460   0.00000
O          O       0.53580   0.33120   0.53580
O          O       0.33120   0.53580   0.53580
O          O       0.53580   0.53580   0.33120
O          O       0.39470   0.77540   0.61930
O          O       0.77540   0.38070   0.15610
O          O       0.61930   0.84390   0.22460
O          O       0.77540   0.61930   0.39470
O          O       0.61930   0.39470   0.77540
O          O       0.84390   0.22460   0.61930
O          O       0.38070   0.60530   0.22460
O          O       0.38070   0.15610   0.77540
O          O       0.39470   0.61930   0.77540
O          O       0.77540   0.15610   0.38070
O          O       0.61930   0.22460   0.84390
O          O       0.77540   0.39470   0.61930
O          O       0.61930   0.77540   0.39470
O          O       0.84390   0.61930   0.22460
O          O       0.38070   0.22460   0.60530
O          O       0.38070   0.77540   0.15610
O          O       0.60530   0.22460   0.38070
O          O       0.22460   0.61930   0.84390
O          O       0.22460   0.38070   0.60530
O          O       0.15610   0.77540   0.38070
O          O       0.60530   0.38070   0.22460
O          O       0.22460   0.84390   0.61930
O          O       0.22460   0.60530   0.38070
O          O       0.15610   0.38070   0.77540
Si         Si      0.35370   0.85370   0.70740
Si         Si      0.64630   0.29260   0.14630
Si         Si      0.50000   0.85370   0.14630
Si         Si      0.35370   0.64630   0.50000
Si         Si      0.64630   0.50000   0.35370
Si         Si      0.50000   0.35370   0.64630
Si         Si      0.85370   0.35370   0.70740
Si         Si      0.85370   0.50000   0.14630
Si         Si      0.29260   0.64630   0.14630
Si         Si      0.85370   0.14630   0.50000
Si         Si      0.85370   0.70740   0.35370
Si         Si      0.29260   0.14630   0.64630
Si         Si      0.35370   0.70740   0.85370
Si         Si      0.64630   0.14630   0.29260
Si         Si      0.50000   0.14630   0.85370
Si         Si      0.35370   0.50000   0.64630
Si         Si      0.64630   0.35370   0.50000
Si         Si      0.50000   0.64630   0.35370
Si         Si      0.14630   0.64630   0.29260
Si         Si      0.14630   0.50000   0.85370
Si         Si      0.70740   0.35370   0.85370
Si         Si      0.14630   0.85370   0.50000
Si         Si      0.14630   0.29260   0.64630
Si         Si      0.70740   0.85370   0.35370
