data_crystal

_cell_length_a    7.41200
_cell_length_b    8.64100
_cell_length_c    15.74208
_cell_angle_alpha 90.00000
_cell_angle_beta  91.86594
_cell_angle_gamma 90.00000

_space_group_name_Hall 'P 1'
_space_group_name_H-M_alt 'P 1'

loop_
_symmetry_equiv_pos_as_xyz
 'x,y,z'

loop_
_atom_site_label
_atom_site_type_symbol
_atom_site_fract_x
_atom_site_fract_y
_atom_site_fract_z
Si         Si      0.05920   0.17840   0.99400
Si         Si      0.44080   0.17840   0.50600
Si         Si      0.94080   0.82160   0.00600
Si         Si      0.55920   0.82160   0.49400
Si         Si      0.25960   0.60450   0.94150
Si         Si      0.24040   0.60450   0.55850
Si         Si      0.74040   0.39550   0.05850
Si         Si      0.75960   0.39550   0.44150
Si         Si      0.38340   0.34600   0.67680
Si         Si      0.11660   0.34600   0.82320
Si         Si      0.61660   0.65400   0.32320
Si         Si      0.88340   0.65400   0.17680
Si         Si      0.64020   0.65050   0.91710
Si         Si      0.85980   0.65050   0.58290
Si         Si      0.35980   0.34950   0.08290
Si         Si      0.14020   0.34950   0.41710
Si         Si      0.25000   0.53020   0.25000
Si         Si      0.75000   0.46980   0.75000
O          O       0.89260   0.28610   0.01980
O          O       0.60740   0.28610   0.48020
O          O       0.10740   0.71390   0.98020
O          O       0.39260   0.71390   0.51980
O          O       0.00000   0.00000   0.00000
O          O       0.50000   0.00000   0.50000
O          O       0.22700   0.20730   0.05980
O          O       0.27300   0.20730   0.44020
O          O       0.77300   0.79270   0.94020
O          O       0.72700   0.79270   0.55980
O          O       0.11780   0.22100   0.89920
O          O       0.38220   0.22100   0.60080
O          O       0.88220   0.77900   0.10080
O          O       0.61780   0.77900   0.39920
O          O       0.32930   0.48200   0.01220
O          O       0.17070   0.48200   0.48780
O          O       0.67070   0.51800   0.98780
O          O       0.82930   0.51800   0.51220
O          O       0.43230   0.70550   0.91570
O          O       0.06770   0.70550   0.58430
O          O       0.56770   0.29450   0.08430
O          O       0.93230   0.29450   0.41570
O          O       0.18020   0.51190   0.85980
O          O       0.31980   0.51190   0.64020
O          O       0.81980   0.48810   0.14020
O          O       0.68020   0.48810   0.35980
O          O       0.58540   0.36200   0.71670
O          O       0.91460   0.36200   0.78330
O          O       0.41460   0.63800   0.28330
O          O       0.08540   0.63800   0.21670
O          O       0.25000   0.29230   0.75000
O          O       0.75000   0.70770   0.25000
O          O       0.68460   0.57910   0.82580
O          O       0.81540   0.57910   0.67420
O          O       0.31540   0.42090   0.17420
O          O       0.18460   0.42090   0.32580
