data_crystal

_cell_length_a    7.15500
_cell_length_b    7.15800
_cell_length_c    21.21679
_cell_angle_alpha 90.00051
_cell_angle_beta  80.29261
_cell_angle_gamma 90.00300

_space_group_name_Hall 'P 1'
_space_group_name_H-M_alt 'P 1'

loop_
_symmetry_equiv_pos_as_xyz
 'x,y,z'

loop_
_atom_site_label
_atom_site_type_symbol
_atom_site_fract_x
_atom_site_fract_y
_atom_site_fract_z
O          O       0.28630   0.00000   0.79460
O          O       0.91910   0.00000   0.79460
O          O       0.71370   0.00000   0.20540
O          O       0.08090   0.00000   0.20540
O          O       0.36980   0.81560   0.89360
O          O       0.73660   0.18440   0.89360
O          O       0.63020   0.18440   0.10640
O          O       0.26340   0.81560   0.10640
O          O       0.04860   1.00000   0.90280
O          O       0.95140   1.00000   0.09720
O          O       0.36990   0.18430   0.89360
O          O       0.73650   0.81570   0.89360
O          O       0.63010   0.81570   0.10640
O          O       0.26350   0.18430   0.10640
O          O       0.54630   0.50000   0.90740
O          O       0.45370   0.50000   0.09260
O          O       0.49990   0.74900   0.00000
O          O       0.50010   0.25100   0.00000
O          O       0.14730   0.81650   0.70540
O          O       0.14730   0.18350   0.70540
O          O       0.85270   0.18350   0.29460
O          O       0.85270   0.81650   0.29460
O          O       0.38120   0.68330   0.60640
O          O       0.01240   0.31670   0.60640
O          O       0.61880   0.31670   0.39360
O          O       0.98760   0.68330   0.39360
O          O       0.20140   1.00000   0.59720
O          O       0.79860   1.00000   0.40280
O          O       0.01250   0.68330   0.60640
O          O       0.38110   0.31670   0.60640
O          O       0.98750   0.31670   0.39360
O          O       0.61890   0.68330   0.39360
O          O       0.70380   0.50000   0.59240
O          O       0.29620   0.50000   0.40760
O          O       0.00000   0.50000   0.50000
O          O       0.50000   0.50000   0.50000
Si         Si      0.27000   0.00000   0.87140
Si         Si      0.85860   0.00000   0.87140
Si         Si      0.73000   0.00000   0.12860
Si         Si      0.14140   0.00000   0.12860
Si         Si      0.53810   0.71960   0.92380
Si         Si      0.53810   0.28040   0.92380
Si         Si      0.46190   0.28040   0.07620
Si         Si      0.46190   0.71960   0.07620
Si         Si      0.18570   0.79430   0.62860
Si         Si      0.18570   0.20570   0.62860
Si         Si      0.81430   0.20570   0.37140
Si         Si      0.81430   0.79430   0.37140
Si         Si      0.93180   0.50000   0.57620
Si         Si      0.49200   0.50000   0.57620
Si         Si      0.06820   0.50000   0.42380
Si         Si      0.50800   0.50000   0.42380
Si         Si      0.12500   1.00000   0.75000
Si         Si      0.87500   1.00000   0.25000
