data_crystal

_cell_length_a    7.43100
_cell_length_b    9.81864
_cell_length_c    9.81864
_cell_angle_alpha 88.23389
_cell_angle_beta  81.11685
_cell_angle_gamma 81.11685

_space_group_name_Hall 'P 1'
_space_group_name_H-M_alt 'P 1'

loop_
_symmetry_equiv_pos_as_xyz
 'x,y,z'

loop_
_atom_site_label
_atom_site_type_symbol
_atom_site_fract_x
_atom_site_fract_y
_atom_site_fract_z
O          O       0.62450   0.43570   0.18850
O          O       0.37550   0.81150   0.56430
O          O       0.37550   0.56430   0.81150
O          O       0.62450   0.18850   0.43570
O          O       0.50000   0.64560   0.35440
O          O       0.50000   0.35440   0.64560
O          O       0.28350   0.55960   0.19820
O          O       0.71650   0.80180   0.44040
O          O       0.71650   0.44040   0.80180
O          O       0.28350   0.19820   0.55960
O          O       0.38080   0.40820   0.40820
O          O       0.61920   0.59180   0.59180
O          O       0.94660   0.50230   0.21550
O          O       0.05340   0.78450   0.49770
O          O       0.05340   0.49770   0.78450
O          O       0.94660   0.21550   0.50230
O          O       0.91230   0.36190   0.99950
O          O       0.08770   0.00050   0.63810
O          O       0.08770   0.63810   0.00050
O          O       0.91230   0.99950   0.36190
O          O       0.89210   0.24410   0.24410
O          O       0.10790   0.75590   0.75590
O          O       1.00000   0.75790   0.24210
O          O       1.00000   0.24210   0.75790
Si         Si      0.44710   0.51230   0.28750
Si         Si      0.55290   0.71250   0.48770
Si         Si      0.55290   0.48770   0.71250
Si         Si      0.44710   0.28750   0.51230
Si         Si      0.84370   0.38610   0.16170
Si         Si      0.15630   0.83830   0.61390
Si         Si      0.15630   0.61390   0.83830
Si         Si      0.84370   0.16170   0.38610
Si         Si      0.07970   0.61440   0.16420
Si         Si      0.92030   0.83580   0.38560
Si         Si      0.92030   0.38560   0.83580
Si         Si      0.07970   0.16420   0.61440
