data_crystal

_cell_length_a    9.76200
_cell_length_b    9.99600
_cell_length_c    11.36637
_cell_angle_alpha 87.04409
_cell_angle_beta  64.56895
_cell_angle_gamma 83.10300

_space_group_name_Hall 'P 1'
_space_group_name_H-M_alt 'P 1'

loop_
_symmetry_equiv_pos_as_xyz
 'x,y,z'

loop_
_atom_site_label
_atom_site_type_symbol
_atom_site_fract_x
_atom_site_fract_y
_atom_site_fract_z
O          O       0.86550   0.67660   0.58800
O          O       0.54650   0.32340   0.58800
O          O       0.13450   0.32340   0.41200
O          O       0.45350   0.67660   0.41200
O          O       0.66510   0.50000   0.66980
O          O       0.33490   0.50000   0.33020
O          O       0.58760   0.74490   0.76600
O          O       0.64640   0.25510   0.76600
O          O       0.41240   0.25510   0.23400
O          O       0.35360   0.74490   0.23400
O          O       0.63460   0.70410   0.52420
O          O       0.84120   0.29590   0.52420
O          O       0.36540   0.29590   0.47580
O          O       0.15880   0.70410   0.47580
O          O       0.16260   0.91960   0.18300
O          O       0.65440   0.08040   0.18300
O          O       0.83740   0.08040   0.81700
O          O       0.34560   0.91960   0.81700
O          O       0.43790   0.84990   0.00000
O          O       0.56210   0.15010   0.00000
O          O       0.40160   1.00000   0.19680
O          O       0.59840   1.00000   0.80320
O          O       0.96870   0.87890   0.65240
O          O       0.37890   0.12110   0.65240
O          O       0.03130   0.12110   0.34760
O          O       0.62110   0.87890   0.34760
O          O       0.96540   0.87430   0.42260
O          O       0.61200   0.12570   0.42260
O          O       0.03460   0.12570   0.57740
O          O       0.38800   0.87430   0.57740
O          O       0.87140   1.00000   0.25720
O          O       0.12860   1.00000   0.74280
Si         Si      0.68830   0.65640   0.63660
Si         Si      0.67510   0.34360   0.63660
Si         Si      0.31170   0.34360   0.36340
Si         Si      0.32490   0.65640   0.36340
Si         Si      0.33910   0.87860   0.15320
Si         Si      0.50770   0.12140   0.15320
Si         Si      0.66090   0.12140   0.84680
Si         Si      0.49230   0.87860   0.84680
Si         Si      0.98980   0.78350   0.53460
Si         Si      0.47560   0.21650   0.53460
Si         Si      0.01020   0.21650   0.46540
Si         Si      0.52440   0.78350   0.46540
Si         Si      0.00750   0.97880   0.30280
Si         Si      0.68970   0.02120   0.30280
Si         Si      0.99250   0.02120   0.69720
Si         Si      0.31030   0.97880   0.69720
