data_crystal

_cell_length_a    9.37273
_cell_length_b    9.37273
_cell_length_c    12.45400
_cell_angle_alpha 107.23984
_cell_angle_beta  107.23984
_cell_angle_gamma 90.26800

_space_group_name_Hall 'P 1'
_space_group_name_H-M_alt 'P 1'

loop_
_symmetry_equiv_pos_as_xyz
 'x,y,z'

loop_
_atom_site_label
_atom_site_type_symbol
_atom_site_fract_x
_atom_site_fract_y
_atom_site_fract_z
O          O       0.69410   0.98210   0.99600
O          O       0.01790   0.30590   0.00400
O          O       0.30590   0.01790   0.00400
O          O       0.98210   0.69410   0.99600
O          O       0.69690   0.69690   0.88290
O          O       0.30310   0.30310   0.11710
O          O       0.44130   0.80570   0.89190
O          O       0.19430   0.55870   0.10810
O          O       0.55870   0.19430   0.10810
O          O       0.80570   0.44130   0.89190
O          O       0.58710   0.88210   0.76360
O          O       0.11790   0.41290   0.23640
O          O       0.41290   0.11790   0.23640
O          O       0.88210   0.58710   0.76360
O          O       0.66140   0.66140   0.60940
O          O       0.33860   0.33860   0.39060
O          O       0.42220   0.79620   0.53940
O          O       0.20380   0.57780   0.46060
O          O       0.57780   0.20380   0.46060
O          O       0.79620   0.42220   0.53940
O          O       0.69170   0.93810   0.60470
O          O       0.06190   0.30830   0.39530
O          O       0.30830   0.06190   0.39530
O          O       0.93810   0.69170   0.60470
O          O       0.81330   0.15030   0.80650
O          O       0.84970   0.18670   0.19350
O          O       0.18670   0.84970   0.19350
O          O       0.15030   0.81330   0.80650
O          O       0.98560   0.98560   0.69780
O          O       0.01440   0.01440   0.30220
O          O       0.83620   0.18280   0.60940
O          O       0.81720   0.16380   0.39060
O          O       0.16380   0.81720   0.39060
O          O       0.18280   0.83620   0.60940
O          O       0.73910   0.26090   1.00000
O          O       0.26090   0.73910   1.00000
Si         Si      0.60510   0.84170   0.88360
Si         Si      0.15830   0.39490   0.11640
Si         Si      0.39490   0.15830   0.11640
Si         Si      0.84170   0.60510   0.88360
Si         Si      0.59020   0.81960   0.62920
Si         Si      0.18040   0.40980   0.37080
Si         Si      0.40980   0.18040   0.37080
Si         Si      0.81960   0.59020   0.62920
Si         Si      0.83170   0.06430   0.67940
Si         Si      0.93570   0.16830   0.32060
Si         Si      0.16830   0.93570   0.32060
Si         Si      0.06430   0.83170   0.67940
Si         Si      0.84440   0.29000   0.92570
Si         Si      0.71000   0.15560   0.07430
Si         Si      0.15560   0.71000   0.07430
Si         Si      0.29000   0.84440   0.92570
Si         Si      0.75680   0.24320   0.50000
Si         Si      0.24320   0.75680   0.50000
