data_crystal

_cell_length_a    7.80600
_cell_length_b    7.80600
_cell_length_c    14.74695
_cell_angle_alpha 105.34705
_cell_angle_beta  105.34705
_cell_angle_gamma 90.00000

_space_group_name_Hall 'P 1'
_space_group_name_H-M_alt 'P 1'

loop_
_symmetry_equiv_pos_as_xyz
 'x,y,z'

loop_
_atom_site_label
_atom_site_type_symbol
_atom_site_fract_x
_atom_site_fract_y
_atom_site_fract_z
O          O       0.25150   0.11470   0.16500
O          O       0.55030   0.25150   0.66500
O          O       0.91350   0.55030   0.16500
O          O       0.11470   0.91350   0.66500
O          O       0.91350   0.11470   0.16500
O          O       0.11470   0.25150   0.66500
O          O       0.25150   0.55030   0.16500
O          O       0.55030   0.91350   0.66500
O          O       0.74850   0.88530   0.83500
O          O       0.44970   0.74850   0.33500
O          O       0.08650   0.44970   0.83500
O          O       0.88530   0.08650   0.33500
O          O       0.08650   0.88530   0.83500
O          O       0.88530   0.74850   0.33500
O          O       0.74850   0.44970   0.83500
O          O       0.44970   0.08650   0.33500
O          O       0.39660   0.43480   0.79320
O          O       0.85840   0.39660   0.29320
O          O       0.39660   0.85840   0.79320
O          O       0.43480   0.39660   0.29320
O          O       0.60340   0.56520   0.20680
O          O       0.14160   0.60340   0.70680
O          O       0.60340   0.14160   0.20680
O          O       0.56520   0.60340   0.70680
O          O       0.06500   0.81500   0.13000
O          O       0.81500   0.06500   0.63000
O          O       0.93500   0.18500   0.87000
O          O       0.18500   0.93500   0.37000
O          O       0.00000   0.50000   0.00000
O          O       0.00000   0.00000   0.50000
O          O       0.00000   0.00000   0.00000
O          O       0.50000   0.00000   0.50000
Si         Si      0.05720   0.60310   0.11440
Si         Si      0.01130   0.05720   0.61440
Si         Si      0.05720   0.01130   0.11440
Si         Si      0.60310   0.05720   0.61440
Si         Si      0.94280   0.39690   0.88560
Si         Si      0.98870   0.94280   0.38560
Si         Si      0.94280   0.98870   0.88560
Si         Si      0.39690   0.94280   0.38560
Si         Si      0.56610   0.81610   0.75000
Si         Si      0.43390   0.56610   0.25000
Si         Si      0.18390   0.43390   0.75000
Si         Si      0.81610   0.18390   0.25000
Si         Si      0.18390   0.81610   0.75000
Si         Si      0.81610   0.56610   0.25000
Si         Si      0.56610   0.43390   0.75000
Si         Si      0.43390   0.18390   0.25000
