data_crystal

_cell_length_a    15.38234
_cell_length_b    15.38234
_cell_length_c    15.38234
_cell_angle_alpha 109.47122
_cell_angle_beta  109.47122
_cell_angle_gamma 109.47122

_space_group_name_Hall 'P 1'
_space_group_name_H-M_alt 'P 1'

loop_
_symmetry_equiv_pos_as_xyz
 'x,y,z'

loop_
_atom_site_label
_atom_site_type_symbol
_atom_site_fract_x
_atom_site_fract_y
_atom_site_fract_z
O          O       0.28580   0.69200   0.69200
O          O       0.59380   0.30800   0.00000
O          O       0.59380   0.00000   0.30800
O          O       0.00000   0.30800   0.59380
O          O       0.30800   0.00000   0.59380
O          O       0.69200   0.69200   0.28580
O          O       0.00000   0.59380   0.30800
O          O       0.30800   0.59380   1.00000
O          O       0.69200   0.28580   0.69200
O          O       0.71420   0.40620   0.40620
O          O       0.40620   0.71420   0.40620
O          O       0.40620   0.40620   0.71420
O          O       0.29540   0.63840   0.84300
O          O       0.45240   0.15700   0.79540
O          O       0.65700   0.20460   0.36160
O          O       0.79540   0.15700   0.45240
O          O       0.36160   0.20460   0.65700
O          O       0.84300   0.63840   0.29540
O          O       0.79540   0.45240   0.15700
O          O       0.36160   0.65700   0.20460
O          O       0.84300   0.29540   0.63840
O          O       0.70460   0.34300   0.54760
O          O       0.54760   0.70460   0.34300
O          O       0.34300   0.54760   0.70460
O          O       0.20460   0.36160   0.65700
O          O       0.63840   0.84300   0.29540
O          O       0.15700   0.79540   0.45240
O          O       0.29540   0.84300   0.63840
O          O       0.45240   0.79540   0.15700
O          O       0.65700   0.36160   0.20460
O          O       0.70460   0.54760   0.34300
O          O       0.54760   0.34300   0.70460
O          O       0.34300   0.70460   0.54760
O          O       0.20460   0.65700   0.36160
O          O       0.63840   0.29540   0.84300
O          O       0.15700   0.45240   0.79540
O          O       0.14950   0.50000   0.64950
O          O       0.50000   0.35050   0.85050
O          O       0.64950   0.14950   0.50000
O          O       0.85050   0.35050   0.50000
O          O       0.50000   0.14950   0.64950
O          O       0.64950   0.50000   0.14950
O          O       0.85050   0.50000   0.35050
O          O       0.50000   0.64950   0.14950
O          O       0.50000   0.85050   0.35050
O          O       0.35050   0.50000   0.85050
O          O       0.35050   0.85050   0.50000
O          O       0.14950   0.64950   0.50000
Si         Si      0.27020   0.59940   0.72160
Si         Si      0.54860   0.27840   0.87780
Si         Si      0.67080   0.12220   0.40060
Si         Si      0.87780   0.27840   0.54860
Si         Si      0.40060   0.12220   0.67080
Si         Si      0.72160   0.59940   0.27020
Si         Si      0.87780   0.54860   0.27840
Si         Si      0.40060   0.67080   0.12220
Si         Si      0.72160   0.27020   0.59940
Si         Si      0.72980   0.32920   0.45140
Si         Si      0.45140   0.72980   0.32920
Si         Si      0.32920   0.45140   0.72980
Si         Si      0.12220   0.40060   0.67080
Si         Si      0.59940   0.72160   0.27020
Si         Si      0.27840   0.87780   0.54860
Si         Si      0.27020   0.72160   0.59940
Si         Si      0.54860   0.87780   0.27840
Si         Si      0.67080   0.40060   0.12220
Si         Si      0.72980   0.45140   0.32920
Si         Si      0.45140   0.32920   0.72980
Si         Si      0.32920   0.72980   0.45140
Si         Si      0.12220   0.67080   0.40060
Si         Si      0.59940   0.27020   0.72160
Si         Si      0.27840   0.54860   0.87780
