data_crystal

_cell_length_a    8.31700
_cell_length_b    14.70900
_cell_length_c    16.15363
_cell_angle_alpha 117.08326
_cell_angle_beta  104.91789
_cell_angle_gamma 90.00000

_space_group_name_Hall 'P 1'
_space_group_name_H-M_alt 'P 1'

loop_
_symmetry_equiv_pos_as_xyz
 'x,y,z'

loop_
_atom_site_label
_atom_site_type_symbol
_atom_site_fract_x
_atom_site_fract_y
_atom_site_fract_z
O          O       0.54720   0.79720   0.59440
O          O       0.95280   0.20280   0.40560
O          O       0.45280   0.20280   0.40560
O          O       0.04720   0.79720   0.59440
O          O       0.51740   0.64380   0.63340
O          O       0.88400   0.35620   0.36660
O          O       0.61600   0.98960   0.63340
O          O       0.98260   0.01040   0.36660
O          O       0.48260   0.35620   0.36660
O          O       0.11600   0.64380   0.63340
O          O       0.38400   0.01040   0.36660
O          O       0.01740   0.98960   0.63340
O          O       0.52050   0.60770   0.45800
O          O       0.06250   0.39230   0.54200
O          O       0.43750   0.85030   0.45800
O          O       0.97950   0.14970   0.54200
O          O       0.47950   0.39230   0.54200
O          O       0.93750   0.60770   0.45800
O          O       0.56250   0.14970   0.54200
O          O       0.02050   0.85030   0.45800
O          O       0.26000   0.67570   0.52000
O          O       0.74000   0.32430   0.48000
O          O       0.76000   0.84430   0.52000
O          O       0.24000   0.15570   0.48000
O          O       0.92940   0.46690   0.28300
O          O       0.64640   0.53310   0.71700
O          O       0.85360   0.81610   0.28300
O          O       0.57060   0.18390   0.71700
O          O       0.07060   0.53310   0.71700
O          O       0.35360   0.46690   0.28300
O          O       0.14640   0.18390   0.71700
O          O       0.42940   0.81610   0.28300
O          O       0.90930   0.65930   0.31860
O          O       0.59070   0.34070   0.68140
O          O       0.09070   0.34070   0.68140
O          O       0.40930   0.65930   0.31860
O          O       0.65740   0.54850   0.31480
O          O       0.34260   0.45150   0.68520
O          O       0.15740   0.76630   0.31480
O          O       0.84260   0.23370   0.68520
O          O       0.15530   0.35060   0.31060
O          O       0.84470   0.64940   0.68940
O          O       0.65530   0.96000   0.31060
O          O       0.34470   0.04000   0.68940
O          O       0.31810   0.26470   0.18020
O          O       0.13790   0.73530   0.81980
O          O       0.36210   0.91550   0.18020
O          O       0.18190   0.08450   0.81980
O          O       0.68190   0.73530   0.81980
O          O       0.86210   0.26470   0.18020
O          O       0.63790   0.08450   0.81980
O          O       0.81810   0.91550   0.18020
O          O       0.32070   0.07070   0.14140
O          O       0.17930   0.92930   0.85860
O          O       0.67930   0.92930   0.85860
O          O       0.82070   0.07070   0.14140
O          O       0.05820   0.95100   0.11640
O          O       0.94180   0.04900   0.88360
O          O       0.55820   0.16540   0.11640
O          O       0.44180   0.83460   0.88360
O          O       0.25000   0.87950   1.00000
O          O       0.25000   0.12050   0.00000
O          O       0.75000   0.12050   0.00000
O          O       0.75000   0.87950   1.00000
Si         Si      0.46110   0.68070   0.55180
Si         Si      0.90930   0.31930   0.44820
Si         Si      0.59070   0.87110   0.55180
Si         Si      0.03890   0.12890   0.44820
Si         Si      0.53890   0.31930   0.44820
Si         Si      0.09070   0.68070   0.55180
Si         Si      0.40930   0.12890   0.44820
Si         Si      0.96110   0.87110   0.55180
Si         Si      0.85880   0.57140   0.34400
Si         Si      0.51480   0.42860   0.65600
Si         Si      0.98520   0.77260   0.34400
Si         Si      0.64120   0.22740   0.65600
Si         Si      0.14120   0.42860   0.65600
Si         Si      0.48520   0.57140   0.34400
Si         Si      0.01480   0.22740   0.65600
Si         Si      0.35880   0.77260   0.34400
Si         Si      0.32720   0.35930   0.28480
Si         Si      0.04240   0.64070   0.71520
Si         Si      0.45760   0.92550   0.28480
Si         Si      0.17280   0.07450   0.71520
Si         Si      0.67280   0.64070   0.71520
Si         Si      0.95760   0.35930   0.28480
Si         Si      0.54240   0.07450   0.71520
Si         Si      0.82720   0.92550   0.28480
Si         Si      0.24710   0.95470   0.10940
Si         Si      0.13770   0.04530   0.89060
Si         Si      0.36230   0.15470   0.10940
Si         Si      0.25290   0.84530   0.89060
Si         Si      0.75290   0.04530   0.89060
Si         Si      0.86230   0.95470   0.10940
Si         Si      0.63770   0.84530   0.89060
Si         Si      0.74710   0.15470   0.10940
