data_crystal

_cell_length_a    13.43900
_cell_length_b    13.43900
_cell_length_c    14.48338
_cell_angle_alpha 117.64201
_cell_angle_beta  117.64201
_cell_angle_gamma 90.00000

_space_group_name_Hall 'P 1'
_space_group_name_H-M_alt 'P 1'

loop_
_symmetry_equiv_pos_as_xyz
 'x,y,z'

loop_
_atom_site_label
_atom_site_type_symbol
_atom_site_fract_x
_atom_site_fract_y
_atom_site_fract_z
O          O       0.64820   0.98420   0.66860
O          O       0.01580   0.97960   0.33140
O          O       0.02040   0.68440   0.66860
O          O       0.31560   0.35180   0.33140
O          O       0.02040   0.98420   0.66860
O          O       0.31560   0.97960   0.33140
O          O       0.64820   0.68440   0.66860
O          O       0.01580   0.35180   0.33140
O          O       0.82270   0.13040   0.89220
O          O       0.86960   0.93050   0.10780
O          O       0.06950   0.76180   0.89220
O          O       0.23820   0.17730   0.10780
O          O       0.06950   0.13040   0.89220
O          O       0.23820   0.93050   0.10780
O          O       0.82270   0.76180   0.89220
O          O       0.86960   0.17730   0.10780
O          O       0.04790   0.90670   0.81340
O          O       0.09330   0.23450   0.18660
O          O       0.76550   0.90670   0.81340
O          O       0.09330   0.95210   0.18660
O          O       0.86300   0.97810   0.72600
O          O       0.02190   0.13700   0.27400
O          O       0.86300   0.74790   0.72600
O          O       0.25210   0.13700   0.27400
O          O       0.08580   0.79340   0.58680
O          O       0.20660   0.49900   0.41320
O          O       0.50100   0.79340   0.58680
O          O       0.20660   0.91420   0.41320
O          O       0.48920   0.99960   0.72780
O          O       0.00040   0.76140   0.27220
O          O       0.23860   0.72820   0.72780
O          O       0.27180   0.51080   0.27220
O          O       0.23860   0.99960   0.72780
O          O       0.27180   0.76140   0.27220
O          O       0.48920   0.72820   0.72780
O          O       0.00040   0.51080   0.27220
O          O       0.07100   0.92900   0.50000
O          O       0.07100   0.57100   0.50000
O          O       0.42900   0.57100   0.50000
O          O       0.42900   0.92900   0.50000
O          O       0.65970   0.16180   0.94700
O          O       0.83820   0.71270   0.05300
O          O       0.28730   0.78520   0.94700
O          O       0.21480   0.34030   0.05300
O          O       0.28730   0.16180   0.94700
O          O       0.21480   0.71270   0.05300
O          O       0.65970   0.78520   0.94700
O          O       0.83820   0.34030   0.05300
O          O       0.30700   0.94980   0.89960
O          O       0.05020   0.40740   0.10040
O          O       0.59260   0.94980   0.89960
O          O       0.05020   0.69300   0.10040
O          O       0.45590   0.08920   0.91180
O          O       0.91080   0.54410   0.08820
O          O       0.45590   0.82260   0.91180
O          O       0.17740   0.54410   0.08820
Si         Si      0.77500   0.99990   0.77540
Si         Si      0.00010   0.99960   0.22460
Si         Si      0.00040   0.77550   0.77540
Si         Si      0.22450   0.22500   0.22460
Si         Si      0.00040   0.99990   0.77540
Si         Si      0.22450   0.99960   0.22460
Si         Si      0.77500   0.77550   0.77540
Si         Si      0.00010   0.22500   0.22460
Si         Si      0.55010   0.05040   0.87220
Si         Si      0.94960   0.67790   0.12780
Si         Si      0.32210   0.82180   0.87220
Si         Si      0.17820   0.44990   0.12780
Si         Si      0.32210   0.05040   0.87220
Si         Si      0.17820   0.67790   0.12780
Si         Si      0.55010   0.82180   0.87220
Si         Si      0.94960   0.44990   0.12780
Si         Si      0.51600   0.69420   0.62100
Si         Si      0.30580   0.89500   0.37900
Si         Si      0.10500   0.92680   0.62100
Si         Si      0.07320   0.48400   0.37900
Si         Si      0.10500   0.69420   0.62100
Si         Si      0.07320   0.89500   0.37900
Si         Si      0.51600   0.92680   0.62100
Si         Si      0.30580   0.48400   0.37900
Si         Si      0.20300   0.79700   1.00000
Si         Si      0.20300   0.20300   0.00000
Si         Si      0.79700   0.20300   1.00000
Si         Si      0.79700   0.79700   0.00000
