data_crystal

_cell_length_a    10.39800
_cell_length_b    11.40072
_cell_length_c    11.40072
_cell_angle_alpha 77.99731
_cell_angle_beta  62.86918
_cell_angle_gamma 62.86918

_space_group_name_Hall 'P 1'
_space_group_name_H-M_alt 'P 1'

loop_
_symmetry_equiv_pos_as_xyz
 'x,y,z'

loop_
_atom_site_label
_atom_site_type_symbol
_atom_site_fract_x
_atom_site_fract_y
_atom_site_fract_z
O          O       0.24180   0.75820   0.75820
O          O       0.00000   0.75820   0.24180
O          O       0.75820   0.24180   0.24180
O          O       0.00000   0.24180   0.75820
O          O       0.16900   0.66200   0.00000
O          O       0.83100   0.00000   0.33800
O          O       0.83100   0.33800   0.00000
O          O       0.16900   0.00000   0.66200
O          O       0.71350   0.62550   0.37450
O          O       0.33900   0.37450   0.37450
O          O       0.71350   0.37450   0.62550
O          O       0.08800   0.62550   0.62550
O          O       0.28650   0.37450   0.62550
O          O       0.66100   0.62550   0.62550
O          O       0.28650   0.62550   0.37450
O          O       0.91200   0.37450   0.37450
O          O       0.45380   0.81100   0.53680
O          O       0.26480   0.53680   0.18900
O          O       0.80160   0.18900   0.46320
O          O       0.99060   0.46320   0.81100
O          O       0.80160   0.46320   0.18900
O          O       0.99060   0.81100   0.46320
O          O       0.45380   0.53680   0.81100
O          O       0.26480   0.18900   0.53680
O          O       0.54620   0.18900   0.46320
O          O       0.73520   0.46320   0.81100
O          O       0.19840   0.81100   0.53680
O          O       0.00940   0.53680   0.18900
O          O       0.19840   0.53680   0.81100
O          O       0.00940   0.18900   0.53680
O          O       0.54620   0.46320   0.18900
O          O       0.73520   0.81100   0.46320
Si         Si      0.26620   0.84450   0.62310
Si         Si      0.11070   0.62310   0.15550
Si         Si      0.73380   0.15550   0.37690
Si         Si      0.88930   0.37690   0.84450
Si         Si      0.73380   0.37690   0.15550
Si         Si      0.88930   0.84450   0.37690
Si         Si      0.26620   0.62310   0.84450
Si         Si      0.11070   0.15550   0.62310
Si         Si      0.85900   0.50000   0.28200
Si         Si      0.35900   0.28200   0.50000
Si         Si      0.64100   0.50000   0.71800
Si         Si      0.14100   0.71800   0.50000
Si         Si      0.64100   0.71800   0.50000
Si         Si      0.14100   0.50000   0.71800
Si         Si      0.85900   0.28200   0.50000
Si         Si      0.35900   0.50000   0.28200
