data_crystal

_cell_length_a    12.87100
_cell_length_b    12.87100
_cell_length_c    30.57700
_cell_angle_alpha 90.00000
_cell_angle_beta  90.00000
_cell_angle_gamma 120.00000

_space_group_name_Hall 'P 1'
_space_group_name_H-M_alt 'P 1'

loop_
_symmetry_equiv_pos_as_xyz
 'x,y,z'

loop_
_atom_site_label
_atom_site_type_symbol
_atom_site_fract_x
_atom_site_fract_y
_atom_site_fract_z
Si         Si      0.24540   0.00280   0.70670
Si         Si      0.57873   0.66947   0.37337
Si         Si      0.91207   0.33613   0.04003
Si         Si      0.75740   0.75460   0.70670
Si         Si      0.09073   0.42127   0.37337
Si         Si      0.42407   0.08793   0.04003
Si         Si      0.99720   0.24260   0.70670
Si         Si      0.33053   0.90927   0.37337
Si         Si      0.66387   0.57593   0.04003
Si         Si      0.75740   0.00280   0.70670
Si         Si      0.09073   0.66947   0.37337
Si         Si      0.42407   0.33613   0.04003
Si         Si      0.99720   0.75460   0.70670
Si         Si      0.33053   0.42127   0.37337
Si         Si      0.66387   0.08793   0.04003
Si         Si      0.24540   0.24260   0.70670
Si         Si      0.57873   0.90927   0.37337
Si         Si      0.91207   0.57593   0.04003
Si         Si      0.75460   0.99720   0.29330
Si         Si      0.08793   0.66387   0.95997
Si         Si      0.42127   0.33053   0.62663
Si         Si      0.24260   0.24540   0.29330
Si         Si      0.57593   0.91207   0.95997
Si         Si      0.90927   0.57873   0.62663
Si         Si      0.00280   0.75740   0.29330
Si         Si      0.33613   0.42407   0.95997
Si         Si      0.66947   0.09073   0.62663
Si         Si      0.24260   0.99720   0.29330
Si         Si      0.57593   0.66387   0.95997
Si         Si      0.90927   0.33053   0.62663
Si         Si      0.00280   0.24540   0.29330
Si         Si      0.33613   0.91207   0.95997
Si         Si      0.66947   0.57873   0.62663
Si         Si      0.75460   0.75740   0.29330
Si         Si      0.08793   0.42407   0.95997
Si         Si      0.42127   0.09073   0.62663
Si         Si      0.42890   0.33280   0.78310
Si         Si      0.76223   0.99947   0.44977
Si         Si      0.09557   0.66613   0.11643
Si         Si      0.90390   0.57110   0.78310
Si         Si      0.23723   0.23777   0.44977
Si         Si      0.57057   0.90443   0.11643
Si         Si      0.66720   0.09610   0.78310
Si         Si      0.00053   0.76277   0.44977
Si         Si      0.33387   0.42943   0.11643
Si         Si      0.90390   0.33280   0.78310
Si         Si      0.23723   0.99947   0.44977
Si         Si      0.57057   0.66613   0.11643
Si         Si      0.66720   0.57110   0.78310
Si         Si      0.00053   0.23777   0.44977
Si         Si      0.33387   0.90443   0.11643
Si         Si      0.42890   0.09610   0.78310
Si         Si      0.76223   0.76277   0.44977
Si         Si      0.09557   0.42943   0.11643
Si         Si      0.57110   0.66720   0.21690
Si         Si      0.90443   0.33387   0.88357
Si         Si      0.23777   0.00053   0.55023
Si         Si      0.09610   0.42890   0.21690
Si         Si      0.42943   0.09557   0.88357
Si         Si      0.76277   0.76223   0.55023
Si         Si      0.33280   0.90390   0.21690
Si         Si      0.66613   0.57057   0.88357
Si         Si      0.99947   0.23723   0.55023
Si         Si      0.09610   0.66720   0.21690
Si         Si      0.42943   0.33387   0.88357
Si         Si      0.76277   0.00053   0.55023
Si         Si      0.33280   0.42890   0.21690
Si         Si      0.66613   0.09557   0.88357
Si         Si      0.99947   0.76223   0.55023
Si         Si      0.57110   0.90390   0.21690
Si         Si      0.90443   0.57057   0.88357
Si         Si      0.23777   0.23723   0.55023
O          O       0.33333   0.01863   0.66667
O          O       0.66667   0.68530   0.33333
O          O       1.00000   0.35197   0.00000
O          O       0.68530   0.66667   0.66667
O          O       0.01863   0.33333   0.33333
O          O       0.35197   1.00000   0.00000
O          O       0.98137   0.31470   0.66667
O          O       0.31470   0.98137   0.33333
O          O       0.64803   0.64803   0.00000
O          O       0.68530   0.01863   0.66667
O          O       0.01863   0.68530   0.33333
O          O       0.35197   0.35197   0.00000
O          O       0.98137   0.66667   0.66667
O          O       0.31470   0.33333   0.33333
O          O       0.64803   0.00000   0.00000
O          O       0.33333   0.31470   0.66667
O          O       0.66667   0.98137   0.33333
O          O       1.00000   0.64803   0.00000
O          O       0.12880   0.87110   0.70450
O          O       0.46213   0.53777   0.37117
O          O       0.79547   0.20443   0.03783
O          O       0.74230   0.87120   0.70450
O          O       0.07563   0.53787   0.37117
O          O       0.40897   0.20453   0.03783
O          O       0.12890   0.25770   0.70450
O          O       0.46223   0.92437   0.37117
O          O       0.79557   0.59103   0.03783
O          O       0.87120   0.12890   0.29550
O          O       0.20453   0.79557   0.96217
O          O       0.53787   0.46223   0.62883
O          O       0.25770   0.12880   0.29550
O          O       0.59103   0.79547   0.96217
O          O       0.92437   0.46213   0.62883
O          O       0.87110   0.74230   0.29550
O          O       0.20443   0.40897   0.96217
O          O       0.53777   0.07563   0.62883
O          O       0.31440   0.01810   0.75220
O          O       0.64773   0.68477   0.41887
O          O       0.98107   0.35143   0.08553
O          O       0.70370   0.68560   0.75220
O          O       0.03703   0.35227   0.41887
O          O       0.37037   0.01893   0.08553
O          O       0.98190   0.29630   0.75220
O          O       0.31523   0.96297   0.41887
O          O       0.64857   0.62963   0.08553
O          O       0.70370   0.01810   0.75220
O          O       0.03703   0.68477   0.41887
O          O       0.37037   0.35143   0.08553
O          O       0.98190   0.68560   0.75220
O          O       0.31523   0.35227   0.41887
O          O       0.64857   0.01893   0.08553
O          O       0.31440   0.29630   0.75220
O          O       0.64773   0.96297   0.41887
O          O       0.98107   0.62963   0.08553
O          O       0.68560   0.98190   0.24780
O          O       0.01893   0.64857   0.91447
O          O       0.35227   0.31523   0.58113
O          O       0.29630   0.31440   0.24780
O          O       0.62963   0.98107   0.91447
O          O       0.96297   0.64773   0.58113
O          O       0.01810   0.70370   0.24780
O          O       0.35143   0.37037   0.91447
O          O       0.68477   0.03703   0.58113
O          O       0.29630   0.98190   0.24780
O          O       0.62963   0.64857   0.91447
O          O       0.96297   0.31523   0.58113
O          O       0.01810   0.31440   0.24780
O          O       0.35143   0.98107   0.91447
O          O       0.68477   0.64773   0.58113
O          O       0.68560   0.70370   0.24780
O          O       0.01893   0.37037   0.91447
O          O       0.35227   0.03703   0.58113
O          O       0.20530   0.10270   0.70330
O          O       0.53863   0.76937   0.36997
O          O       0.87197   0.43603   0.03663
O          O       0.89740   0.79470   0.70330
O          O       0.23073   0.46137   0.36997
O          O       0.56407   0.12803   0.03663
O          O       0.89730   0.10260   0.70330
O          O       0.23063   0.76927   0.36997
O          O       0.56397   0.43593   0.03663
O          O       0.79470   0.89730   0.29670
O          O       0.12803   0.56397   0.96337
O          O       0.46137   0.23063   0.63003
O          O       0.10260   0.20530   0.29670
O          O       0.43593   0.87197   0.96337
O          O       0.76927   0.53863   0.63003
O          O       0.10270   0.89740   0.29670
O          O       0.43603   0.56407   0.96337
O          O       0.76937   0.23073   0.63003
O          O       0.39210   0.33330   0.83330
O          O       0.72543   0.99997   0.49997
O          O       0.05877   0.66663   0.16663
O          O       0.94120   0.60790   0.83330
O          O       0.27453   0.27457   0.49997
O          O       0.60787   0.94123   0.16663
O          O       0.66670   0.05880   0.83330
O          O       0.00003   0.72547   0.49997
O          O       0.33337   0.39213   0.16663
O          O       0.94120   0.33330   0.83330
O          O       0.27453   0.99997   0.49997
O          O       0.60787   0.66663   0.16663
O          O       0.66670   0.60790   0.83330
O          O       0.00003   0.27457   0.49997
O          O       0.33337   0.94123   0.16663
O          O       0.39210   0.05880   0.83330
O          O       0.72543   0.72547   0.49997
O          O       0.05877   0.39213   0.16663
O          O       0.53580   0.46410   0.76980
O          O       0.86913   0.13077   0.43647
O          O       0.20247   0.79743   0.10313
O          O       0.92830   0.46420   0.76980
O          O       0.26163   0.13087   0.43647
O          O       0.59497   0.79753   0.10313
O          O       0.53590   0.07170   0.76980
O          O       0.86923   0.73837   0.43647
O          O       0.20257   0.40503   0.10313
O          O       0.46420   0.53590   0.23020
O          O       0.79753   0.20257   0.89687
O          O       0.13087   0.86923   0.56353
O          O       0.07170   0.53580   0.23020
O          O       0.40503   0.20247   0.89687
O          O       0.73837   0.86913   0.56353
O          O       0.46410   0.92830   0.23020
O          O       0.79743   0.59497   0.89687
O          O       0.13077   0.26163   0.56353
O          O       0.47290   0.23640   0.77700
O          O       0.80623   0.90307   0.44367
O          O       0.13957   0.56973   0.11033
O          O       0.76350   0.52710   0.77700
O          O       0.09683   0.19377   0.44367
O          O       0.43017   0.86043   0.11033
O          O       0.76360   0.23650   0.77700
O          O       0.09693   0.90317   0.44367
O          O       0.43027   0.56983   0.11033
O          O       0.52710   0.76360   0.22300
O          O       0.86043   0.43027   0.88967
O          O       0.19377   0.09693   0.55633
O          O       0.23650   0.47290   0.22300
O          O       0.56983   0.13957   0.88967
O          O       0.90317   0.80623   0.55633
O          O       0.23640   0.76350   0.22300
O          O       0.56973   0.43017   0.88967
O          O       0.90307   0.09683   0.55633
