data_crystal

_cell_length_a    9.44100
_cell_length_b    18.65300
_cell_length_c    18.65300
_cell_angle_alpha 90.00000
_cell_angle_beta  90.00000
_cell_angle_gamma 90.00000

_space_group_name_Hall 'P 1'
_space_group_name_H-M_alt 'P 1'

loop_
_symmetry_equiv_pos_as_xyz
 'x,y,z'

loop_
_atom_site_label
_atom_site_type_symbol
_atom_site_fract_x
_atom_site_fract_y
_atom_site_fract_z
Si         Si      0.33720   0.06580   0.55440
Si         Si      0.33720   0.94560   0.06580
Si         Si      0.33720   0.43420   0.94560
Si         Si      0.33720   0.55440   0.43420
Si         Si      0.33720   0.43420   0.55440
Si         Si      0.33720   0.55440   0.06580
Si         Si      0.33720   0.06580   0.94560
Si         Si      0.33720   0.94560   0.43420
Si         Si      0.66280   0.93420   0.44560
Si         Si      0.66280   0.05440   0.93420
Si         Si      0.66280   0.56580   0.05440
Si         Si      0.66280   0.44560   0.56580
Si         Si      0.66280   0.56580   0.44560
Si         Si      0.66280   0.44560   0.93420
Si         Si      0.66280   0.93420   0.05440
Si         Si      0.66280   0.05440   0.56580
Si         Si      0.83950   0.95350   0.66560
Si         Si      0.83950   0.83440   0.95350
Si         Si      0.83950   0.54650   0.83440
Si         Si      0.83950   0.66560   0.54650
Si         Si      0.83950   0.54650   0.66560
Si         Si      0.83950   0.66560   0.95350
Si         Si      0.83950   0.95350   0.83440
Si         Si      0.83950   0.83440   0.54650
Si         Si      0.16050   0.04650   0.33440
Si         Si      0.16050   0.16560   0.04650
Si         Si      0.16050   0.45350   0.16560
Si         Si      0.16050   0.33440   0.45350
Si         Si      0.16050   0.45350   0.33440
Si         Si      0.16050   0.33440   0.04650
Si         Si      0.16050   0.04650   0.16560
Si         Si      0.16050   0.16560   0.45350
Si         Si      0.08630   0.06420   0.83440
Si         Si      0.08630   0.66560   0.06420
Si         Si      0.08630   0.43580   0.66560
Si         Si      0.08630   0.83440   0.43580
Si         Si      0.08630   0.43580   0.83440
Si         Si      0.08630   0.83440   0.06420
Si         Si      0.08630   0.06420   0.66560
Si         Si      0.08630   0.66560   0.43580
Si         Si      0.91370   0.93580   0.16560
Si         Si      0.91370   0.33440   0.93580
Si         Si      0.91370   0.56420   0.33440
Si         Si      0.91370   0.16560   0.56420
Si         Si      0.91370   0.56420   0.16560
Si         Si      0.91370   0.16560   0.93580
Si         Si      0.91370   0.93580   0.33440
Si         Si      0.91370   0.33440   0.56420
O          O       0.00000   0.13140   0.63140
O          O       0.00000   0.86860   0.13140
O          O       0.00000   0.36860   0.86860
O          O       1.00000   0.63140   0.36860
O          O       0.00000   0.36860   0.63140
O          O       0.00000   0.63140   0.13140
O          O       0.00000   0.13140   0.86860
O          O       0.00000   0.86860   0.36860
O          O       0.11580   0.08030   0.75000
O          O       0.11580   0.75000   0.08030
O          O       0.11580   0.41970   0.75000
O          O       0.11580   0.75000   0.41970
O          O       0.88420   0.91970   0.25000
O          O       0.88420   0.25000   0.91970
O          O       0.88420   0.58030   0.25000
O          O       0.88420   0.25000   0.58030
O          O       0.83760   0.87780   0.87780
O          O       0.83760   0.62220   0.87780
O          O       0.83760   0.62220   0.62220
O          O       0.83760   0.87780   0.62220
O          O       0.16240   0.12220   0.12220
O          O       0.16240   0.37780   0.12220
O          O       0.16240   0.37780   0.37780
O          O       0.16240   0.12220   0.37780
O          O       0.99430   0.99090   0.84280
O          O       0.99430   0.65720   0.99090
O          O       0.99430   0.50910   0.65720
O          O       0.99430   0.84280   0.50910
O          O       0.99430   0.50910   0.84280
O          O       0.99430   0.84280   0.99090
O          O       0.99430   0.99090   0.65720
O          O       0.99430   0.65720   0.50910
O          O       0.00570   0.00910   0.15720
O          O       0.00570   0.34280   0.00910
O          O       0.00570   0.49090   0.34280
O          O       0.00570   0.15720   0.49090
O          O       0.00570   0.49090   0.15720
O          O       0.00570   0.15720   0.00910
O          O       0.00570   0.00910   0.34280
O          O       0.00570   0.34280   0.49090
O          O       0.80700   0.93860   0.75000
O          O       0.80700   0.75000   0.93860
O          O       0.80700   0.56140   0.75000
O          O       0.80700   0.75000   0.56140
O          O       0.19300   0.06140   0.25000
O          O       0.19300   0.25000   0.06140
O          O       0.19300   0.43860   0.25000
O          O       0.19300   0.25000   0.43860
O          O       0.50000   0.92040   0.42040
O          O       0.50000   0.07960   0.92040
O          O       0.50000   0.57960   0.07960
O          O       0.50000   0.42040   0.57960
O          O       0.50000   0.57960   0.42040
O          O       0.50000   0.42040   0.92040
O          O       0.50000   0.92040   0.07960
O          O       0.50000   0.07960   0.57960
O          O       0.28120   0.99340   0.36700
O          O       0.28120   0.13300   0.99340
O          O       0.28120   0.50660   0.13300
O          O       0.28120   0.36700   0.50660
O          O       0.28120   0.50660   0.36700
O          O       0.28120   0.36700   0.99340
O          O       0.28120   0.99340   0.13300
O          O       0.28120   0.13300   0.50660
O          O       0.71880   0.00660   0.63300
O          O       0.71880   0.86700   0.00660
O          O       0.71880   0.49340   0.86700
O          O       0.71880   0.63300   0.49340
O          O       0.71880   0.49340   0.63300
O          O       0.71880   0.63300   0.00660
O          O       0.71880   0.00660   0.86700
O          O       0.71880   0.86700   0.49340
O          O       0.23780   0.87510   0.44400
O          O       0.23780   0.05600   0.87510
O          O       0.23780   0.62490   0.05600
O          O       0.23780   0.44400   0.62490
O          O       0.23780   0.62490   0.44400
O          O       0.23780   0.44400   0.87510
O          O       0.23780   0.87510   0.05600
O          O       0.23780   0.05600   0.62490
O          O       0.76220   0.12490   0.55600
O          O       0.76220   0.94400   0.12490
O          O       0.76220   0.37510   0.94400
O          O       0.76220   0.55600   0.37510
O          O       0.76220   0.37510   0.55600
O          O       0.76220   0.55600   0.12490
O          O       0.76220   0.12490   0.94400
O          O       0.76220   0.94400   0.37510
O          O       0.33000   0.99240   0.50760
O          O       0.33000   0.99240   0.99240
O          O       0.33000   0.50760   0.99240
O          O       0.33000   0.50760   0.50760
O          O       0.67000   0.00760   0.49240
O          O       0.67000   0.00760   0.00760
O          O       0.67000   0.49240   0.00760
O          O       0.67000   0.49240   0.49240
