data_crystal

_cell_length_a    18.53400
_cell_length_b    18.53400
_cell_length_c    18.86314
_cell_angle_alpha 119.42446
_cell_angle_beta  119.42446
_cell_angle_gamma 90.00000

_space_group_name_Hall 'P 1'
_space_group_name_H-M_alt 'P 1'

loop_
_symmetry_equiv_pos_as_xyz
 'x,y,z'

loop_
_atom_site_label
_atom_site_type_symbol
_atom_site_fract_x
_atom_site_fract_y
_atom_site_fract_z
O          O       0.45330   0.78750   0.37020
O          O       0.58270   0.45330   0.37020
O          O       0.91690   0.58270   0.37020
O          O       0.78750   0.91690   0.37020
O          O       0.91690   0.78750   0.37020
O          O       0.78750   0.45330   0.37020
O          O       0.45330   0.58270   0.37020
O          O       0.58270   0.91690   0.37020
O          O       0.54670   0.21250   0.62980
O          O       0.41730   0.54670   0.62980
O          O       0.08310   0.41730   0.62980
O          O       0.21250   0.08310   0.62980
O          O       0.08310   0.21250   0.62980
O          O       0.21250   0.54670   0.62980
O          O       0.54670   0.41730   0.62980
O          O       0.41730   0.08310   0.62980
O          O       0.51460   0.87520   0.55860
O          O       0.68340   0.51460   0.55860
O          O       0.04400   0.68340   0.55860
O          O       0.87520   0.04400   0.55860
O          O       0.04400   0.87520   0.55860
O          O       0.87520   0.51460   0.55860
O          O       0.51460   0.68340   0.55860
O          O       0.68340   0.04400   0.55860
O          O       0.48540   0.12480   0.44140
O          O       0.31660   0.48540   0.44140
O          O       0.95600   0.31660   0.44140
O          O       0.12480   0.95600   0.44140
O          O       0.95600   0.12480   0.44140
O          O       0.12480   0.48540   0.44140
O          O       0.48540   0.31660   0.44140
O          O       0.31660   0.95600   0.44140
O          O       0.56380   0.74060   0.48120
O          O       0.74060   0.56380   0.48120
O          O       0.91740   0.74060   0.48120
O          O       0.74060   0.91740   0.48120
O          O       0.43620   0.25940   0.51880
O          O       0.25940   0.43620   0.51880
O          O       0.08260   0.25940   0.51880
O          O       0.25940   0.08260   0.51880
O          O       0.61800   0.88620   0.50420
O          O       0.61800   0.61800   0.50420
O          O       0.88620   0.61800   0.50420
O          O       0.88620   0.88620   0.50420
O          O       0.38200   0.11380   0.49580
O          O       0.38200   0.38200   0.49580
O          O       0.11380   0.38200   0.49580
O          O       0.11380   0.11380   0.49580
O          O       0.50620   0.67710   0.81660
O          O       0.13950   0.50620   0.81660
O          O       0.31040   0.13950   0.81660
O          O       0.67710   0.31040   0.81660
O          O       0.31040   0.67710   0.81660
O          O       0.67710   0.50620   0.81660
O          O       0.50620   0.13950   0.81660
O          O       0.13950   0.31040   0.81660
O          O       0.49380   0.32290   0.18340
O          O       0.86050   0.49380   0.18340
O          O       0.68960   0.86050   0.18340
O          O       0.32290   0.68960   0.18340
O          O       0.68960   0.32290   0.18340
O          O       0.32290   0.49380   0.18340
O          O       0.49380   0.86050   0.18340
O          O       0.86050   0.68960   0.18340
O          O       0.56250   0.56250   0.85540
O          O       0.29290   0.56250   0.85540
O          O       0.29290   0.29290   0.85540
O          O       0.56250   0.29290   0.85540
O          O       0.43750   0.43750   0.14460
O          O       0.70710   0.43750   0.14460
O          O       0.70710   0.70710   0.14460
O          O       0.43750   0.70710   0.14460
O          O       0.43850   0.61450   0.87700
O          O       0.26250   0.43850   0.87700
O          O       0.43850   0.26250   0.87700
O          O       0.61450   0.43850   0.87700
O          O       0.56150   0.38550   0.12300
O          O       0.73750   0.56150   0.12300
O          O       0.56150   0.73750   0.12300
O          O       0.38550   0.56150   0.12300
O          O       0.59920   0.72240   0.00000
O          O       0.27760   0.59920   0.00000
O          O       0.40080   0.27760   0.00000
O          O       0.72240   0.40080   0.00000
O          O       0.40080   0.72240   0.00000
O          O       0.72240   0.59920   0.00000
O          O       0.59920   0.27760   0.00000
O          O       0.27760   0.40080   0.00000
O          O       0.66490   0.34680   0.69360
O          O       0.34680   0.66490   0.69360
O          O       0.02870   0.34680   0.69360
O          O       0.34680   0.02870   0.69360
O          O       0.33510   0.65320   0.30640
O          O       0.65320   0.33510   0.30640
O          O       0.97130   0.65320   0.30640
O          O       0.65320   0.97130   0.30640
O          O       0.70570   0.47450   0.68200
O          O       0.20750   0.70570   0.68200
O          O       0.97630   0.20750   0.68200
O          O       0.47450   0.97630   0.68200
O          O       0.97630   0.47450   0.68200
O          O       0.47450   0.70570   0.68200
O          O       0.70570   0.20750   0.68200
O          O       0.20750   0.97630   0.68200
O          O       0.29430   0.52550   0.31800
O          O       0.79250   0.29430   0.31800
O          O       0.02370   0.79250   0.31800
O          O       0.52550   0.02370   0.31800
O          O       0.02370   0.52550   0.31800
O          O       0.52550   0.29430   0.31800
O          O       0.29430   0.79250   0.31800
O          O       0.79250   0.02370   0.31800
O          O       0.54520   0.18780   0.37560
O          O       0.18780   0.54520   0.37560
O          O       0.83040   0.18780   0.37560
O          O       0.18780   0.83040   0.37560
O          O       0.45480   0.81220   0.62440
O          O       0.81220   0.45480   0.62440
O          O       0.16960   0.81220   0.62440
O          O       0.81220   0.16960   0.62440
O          O       0.64990   0.35010   0.50000
O          O       0.14990   0.64990   0.50000
O          O       0.85010   0.14990   0.50000
O          O       0.35010   0.85010   0.50000
O          O       0.85010   0.35010   0.50000
O          O       0.35010   0.64990   0.50000
O          O       0.64990   0.14990   0.50000
O          O       0.14990   0.85010   0.50000
Si         Si      0.53750   0.82250   0.47860
Si         Si      0.65610   0.53750   0.47860
Si         Si      0.94110   0.65610   0.47860
Si         Si      0.82250   0.94110   0.47860
Si         Si      0.94110   0.82250   0.47860
Si         Si      0.82250   0.53750   0.47860
Si         Si      0.53750   0.65610   0.47860
Si         Si      0.65610   0.94110   0.47860
Si         Si      0.46250   0.17750   0.52140
Si         Si      0.34390   0.46250   0.52140
Si         Si      0.05890   0.34390   0.52140
Si         Si      0.17750   0.05890   0.52140
Si         Si      0.05890   0.17750   0.52140
Si         Si      0.17750   0.46250   0.52140
Si         Si      0.46250   0.34390   0.52140
Si         Si      0.34390   0.05890   0.52140
Si         Si      0.52670   0.64420   0.88740
Si         Si      0.24320   0.52670   0.88740
Si         Si      0.36070   0.24320   0.88740
Si         Si      0.64420   0.36070   0.88740
Si         Si      0.36070   0.64420   0.88740
Si         Si      0.64420   0.52670   0.88740
Si         Si      0.52670   0.24320   0.88740
Si         Si      0.24320   0.36070   0.88740
Si         Si      0.47330   0.35580   0.11260
Si         Si      0.75680   0.47330   0.11260
Si         Si      0.63930   0.75680   0.11260
Si         Si      0.35580   0.63930   0.11260
Si         Si      0.63930   0.35580   0.11260
Si         Si      0.35580   0.47330   0.11260
Si         Si      0.47330   0.75680   0.11260
Si         Si      0.75680   0.63930   0.11260
Si         Si      0.64860   0.43630   0.70560
Si         Si      0.26930   0.64860   0.70560
Si         Si      0.05700   0.26930   0.70560
Si         Si      0.43630   0.05700   0.70560
Si         Si      0.05700   0.43630   0.70560
Si         Si      0.43630   0.64860   0.70560
Si         Si      0.64860   0.26930   0.70560
Si         Si      0.26930   0.05700   0.70560
Si         Si      0.35140   0.56370   0.29440
Si         Si      0.73070   0.35140   0.29440
Si         Si      0.94300   0.73070   0.29440
Si         Si      0.56370   0.94300   0.29440
Si         Si      0.94300   0.56370   0.29440
Si         Si      0.56370   0.35140   0.29440
Si         Si      0.35140   0.73070   0.29440
Si         Si      0.73070   0.94300   0.29440
Si         Si      0.55150   0.28720   0.40880
Si         Si      0.12160   0.55150   0.40880
Si         Si      0.85730   0.12160   0.40880
Si         Si      0.28720   0.85730   0.40880
Si         Si      0.85730   0.28720   0.40880
Si         Si      0.28720   0.55150   0.40880
Si         Si      0.55150   0.12160   0.40880
Si         Si      0.12160   0.85730   0.40880
Si         Si      0.44850   0.71280   0.59120
Si         Si      0.87840   0.44850   0.59120
Si         Si      0.14270   0.87840   0.59120
Si         Si      0.71280   0.14270   0.59120
Si         Si      0.14270   0.71280   0.59120
Si         Si      0.71280   0.44850   0.59120
Si         Si      0.44850   0.87840   0.59120
Si         Si      0.87840   0.14270   0.59120
