data_crystal

_cell_length_a    7.18700
_cell_length_b    7.18700
_cell_length_c    13.84600
_cell_angle_alpha 90.00000
_cell_angle_beta  90.00000
_cell_angle_gamma 120.00000

_space_group_name_Hall 'P 1'
_space_group_name_H-M_alt 'P 1'

loop_
_symmetry_equiv_pos_as_xyz
 'x,y,z'

loop_
_atom_site_label
_atom_site_type_symbol
_atom_site_fract_x
_atom_site_fract_y
_atom_site_fract_z
Si         Si      0.19640   0.80370   0.75000
Si         Si      0.60730   0.80360   0.75000
Si         Si      0.19630   0.39270   0.75000
Si         Si      0.80360   0.19630   0.25000
Si         Si      0.39270   0.19640   0.25000
Si         Si      0.80370   0.60730   0.25000
Si         Si      0.00000   0.00000   0.61600
Si         Si      0.00000   0.00000   0.11600
Si         Si      0.00000   0.00000   0.38400
Si         Si      0.00000   0.00000   0.88400
O          O       0.12190   0.87820   0.65500
O          O       0.75630   0.87810   0.65500
O          O       0.12180   0.24370   0.65500
O          O       0.87810   0.12180   0.15500
O          O       0.24370   0.12190   0.15500
O          O       0.87820   0.75630   0.15500
O          O       0.87810   0.12180   0.34500
O          O       0.24370   0.12190   0.34500
O          O       0.87820   0.75630   0.34500
O          O       0.12190   0.87820   0.84500
O          O       0.75630   0.87810   0.84500
O          O       0.12180   0.24370   0.84500
O          O       0.45420   0.54580   0.75000
O          O       0.09160   0.54580   0.75000
O          O       0.45420   0.90840   0.75000
O          O       0.54580   0.45420   0.25000
O          O       0.90840   0.45420   0.25000
O          O       0.54580   0.09160   0.25000
O          O       0.00000   0.00000   0.00000
O          O       0.00000   0.00000   0.50000
