data_crystal

_cell_length_a    17.19300
_cell_length_b    17.19300
_cell_length_c    27.33300
_cell_angle_alpha 90.00000
_cell_angle_beta  90.00000
_cell_angle_gamma 120.00000

_space_group_name_Hall 'P 1'
_space_group_name_H-M_alt 'P 1'

loop_
_symmetry_equiv_pos_as_xyz
 'x,y,z'

loop_
_atom_site_label
_atom_site_type_symbol
_atom_site_fract_x
_atom_site_fract_y
_atom_site_fract_z
Si         Si      0.93680   0.24250   0.45640
Si         Si      0.30570   0.06320   0.45640
Si         Si      0.75750   0.69430   0.45640
Si         Si      0.06320   0.75750   0.95640
Si         Si      0.69430   0.93680   0.95640
Si         Si      0.24250   0.30570   0.95640
Si         Si      0.30570   0.24250   0.45640
Si         Si      0.75750   0.06320   0.45640
Si         Si      0.93680   0.69430   0.45640
Si         Si      0.69430   0.75750   0.95640
Si         Si      0.24250   0.93680   0.95640
Si         Si      0.06320   0.30570   0.95640
Si         Si      0.06320   0.75750   0.54360
Si         Si      0.69430   0.93680   0.54360
Si         Si      0.24250   0.30570   0.54360
Si         Si      0.93680   0.24250   0.04360
Si         Si      0.30570   0.06320   0.04360
Si         Si      0.75750   0.69430   0.04360
Si         Si      0.69430   0.75750   0.54360
Si         Si      0.24250   0.93680   0.54360
Si         Si      0.06320   0.30570   0.54360
Si         Si      0.30570   0.24250   0.04360
Si         Si      0.75750   0.06320   0.04360
Si         Si      0.93680   0.69430   0.04360
Si         Si      0.27390   0.36900   0.39630
Si         Si      0.09510   0.72610   0.39630
Si         Si      0.63100   0.90490   0.39630
Si         Si      0.72610   0.63100   0.89630
Si         Si      0.90490   0.27390   0.89630
Si         Si      0.36900   0.09510   0.89630
Si         Si      0.09510   0.36900   0.39630
Si         Si      0.63100   0.72610   0.39630
Si         Si      0.27390   0.90490   0.39630
Si         Si      0.90490   0.63100   0.89630
Si         Si      0.36900   0.27390   0.89630
Si         Si      0.72610   0.09510   0.89630
Si         Si      0.72610   0.63100   0.60370
Si         Si      0.90490   0.27390   0.60370
Si         Si      0.36900   0.09510   0.60370
Si         Si      0.27390   0.36900   0.10370
Si         Si      0.09510   0.72610   0.10370
Si         Si      0.63100   0.90490   0.10370
Si         Si      0.90490   0.63100   0.60370
Si         Si      0.36900   0.27390   0.60370
Si         Si      0.72610   0.09510   0.60370
Si         Si      0.09510   0.36900   0.10370
Si         Si      0.63100   0.72610   0.10370
Si         Si      0.27390   0.90490   0.10370
Si         Si      0.15490   0.48800   0.30590
Si         Si      0.33310   0.84510   0.30590
Si         Si      0.51200   0.66690   0.30590
Si         Si      0.84510   0.51200   0.80590
Si         Si      0.66690   0.15490   0.80590
Si         Si      0.48800   0.33310   0.80590
Si         Si      0.33310   0.48800   0.30590
Si         Si      0.51200   0.84510   0.30590
Si         Si      0.15490   0.66690   0.30590
Si         Si      0.66690   0.51200   0.80590
Si         Si      0.48800   0.15490   0.80590
Si         Si      0.84510   0.33310   0.80590
Si         Si      0.84510   0.51200   0.69410
Si         Si      0.66690   0.15490   0.69410
Si         Si      0.48800   0.33310   0.69410
Si         Si      0.15490   0.48800   0.19410
Si         Si      0.33310   0.84510   0.19410
Si         Si      0.51200   0.66690   0.19410
Si         Si      0.66690   0.51200   0.69410
Si         Si      0.48800   0.15490   0.69410
Si         Si      0.84510   0.33310   0.69410
Si         Si      0.33310   0.48800   0.19410
Si         Si      0.51200   0.84510   0.19410
Si         Si      0.15490   0.66690   0.19410
Si         Si      0.66790   0.15590   0.51210
Si         Si      0.48800   0.33210   0.51210
Si         Si      0.84410   0.51200   0.51210
Si         Si      0.33210   0.84410   0.01210
Si         Si      0.51200   0.66790   0.01210
Si         Si      0.15590   0.48800   0.01210
Si         Si      0.48800   0.15590   0.51210
Si         Si      0.84410   0.33210   0.51210
Si         Si      0.66790   0.51200   0.51210
Si         Si      0.51200   0.84410   0.01210
Si         Si      0.15590   0.66790   0.01210
Si         Si      0.33210   0.48800   0.01210
Si         Si      0.33210   0.84410   0.48790
Si         Si      0.51200   0.66790   0.48790
Si         Si      0.15590   0.48800   0.48790
Si         Si      0.66790   0.15590   0.98790
Si         Si      0.48800   0.33210   0.98790
Si         Si      0.84410   0.51200   0.98790
Si         Si      0.51200   0.84410   0.48790
Si         Si      0.15590   0.66790   0.48790
Si         Si      0.33210   0.48800   0.48790
Si         Si      0.48800   0.15590   0.98790
Si         Si      0.84410   0.33210   0.98790
Si         Si      0.66790   0.51200   0.98790
O          O       0.99710   0.28510   0.40800
O          O       0.28800   0.00290   0.40800
O          O       0.71490   0.71200   0.40800
O          O       0.00290   0.71490   0.90800
O          O       0.71200   0.99710   0.90800
O          O       0.28510   0.28800   0.90800
O          O       0.28800   0.28510   0.40800
O          O       0.71490   0.00290   0.40800
O          O       0.99710   0.71200   0.40800
O          O       0.71200   0.71490   0.90800
O          O       0.28510   0.99710   0.90800
O          O       0.00290   0.28800   0.90800
O          O       0.00290   0.71490   0.59200
O          O       0.71200   0.99710   0.59200
O          O       0.28510   0.28800   0.59200
O          O       0.99710   0.28510   0.09200
O          O       0.28800   0.00290   0.09200
O          O       0.71490   0.71200   0.09200
O          O       0.71200   0.71490   0.59200
O          O       0.28510   0.99710   0.59200
O          O       0.00290   0.28800   0.59200
O          O       0.28800   0.28510   0.09200
O          O       0.71490   0.00290   0.09200
O          O       0.99710   0.71200   0.09200
O          O       0.00000   0.24300   0.50000
O          O       0.24300   0.00000   0.50000
O          O       0.75700   0.75700   0.50000
O          O       0.00000   0.75700   1.00000
O          O       0.75700   0.00000   0.00000
O          O       0.24300   0.24300   0.00000
O          O       0.24300   0.24300   0.50000
O          O       0.75700   0.00000   0.50000
O          O       0.00000   0.75700   0.50000
O          O       0.75700   0.75700   0.00000
O          O       0.24300   0.00000   0.00000
O          O       0.00000   0.24300   0.00000
O          O       0.85910   0.14100   0.44530
O          O       0.28190   0.14090   0.44530
O          O       0.85900   0.71810   0.44530
O          O       0.14090   0.85900   0.94530
O          O       0.71810   0.85910   0.94530
O          O       0.14100   0.28190   0.94530
O          O       0.14090   0.85900   0.55470
O          O       0.71810   0.85910   0.55470
O          O       0.14100   0.28190   0.55470
O          O       0.85910   0.14100   0.05470
O          O       0.28190   0.14090   0.05470
O          O       0.85900   0.71810   0.05470
O          O       0.89230   0.30180   0.47210
O          O       0.40950   0.10770   0.47210
O          O       0.69820   0.59050   0.47210
O          O       0.10770   0.69820   0.97210
O          O       0.59050   0.89230   0.97210
O          O       0.30180   0.40950   0.97210
O          O       0.40950   0.30180   0.47210
O          O       0.69820   0.10770   0.47210
O          O       0.89230   0.59050   0.47210
O          O       0.59050   0.69820   0.97210
O          O       0.30180   0.89230   0.97210
O          O       0.10770   0.40950   0.97210
O          O       0.10770   0.69820   0.52790
O          O       0.59050   0.89230   0.52790
O          O       0.30180   0.40950   0.52790
O          O       0.89230   0.30180   0.02790
O          O       0.40950   0.10770   0.02790
O          O       0.69820   0.59050   0.02790
O          O       0.59050   0.69820   0.52790
O          O       0.30180   0.89230   0.52790
O          O       0.10770   0.40950   0.52790
O          O       0.40950   0.30180   0.02790
O          O       0.69820   0.10770   0.02790
O          O       0.89230   0.59050   0.02790
O          O       0.30660   0.40360   0.34130
O          O       0.09700   0.69340   0.34130
O          O       0.59640   0.90300   0.34130
O          O       0.69340   0.59640   0.84130
O          O       0.90300   0.30660   0.84130
O          O       0.40360   0.09700   0.84130
O          O       0.09700   0.40360   0.34130
O          O       0.59640   0.69340   0.34130
O          O       0.30660   0.90300   0.34130
O          O       0.90300   0.59640   0.84130
O          O       0.40360   0.30660   0.84130
O          O       0.69340   0.09700   0.84130
O          O       0.69340   0.59640   0.65870
O          O       0.90300   0.30660   0.65870
O          O       0.40360   0.09700   0.65870
O          O       0.30660   0.40360   0.15870
O          O       0.09700   0.69340   0.15870
O          O       0.59640   0.90300   0.15870
O          O       0.90300   0.59640   0.65870
O          O       0.40360   0.30660   0.65870
O          O       0.69340   0.09700   0.65870
O          O       0.09700   0.40360   0.15870
O          O       0.59640   0.69340   0.15870
O          O       0.30660   0.90300   0.15870
O          O       0.33190   0.44890   0.43430
O          O       0.11700   0.66810   0.43430
O          O       0.55110   0.88300   0.43430
O          O       0.66810   0.55110   0.93430
O          O       0.88300   0.33190   0.93430
O          O       0.44890   0.11700   0.93430
O          O       0.11700   0.44890   0.43430
O          O       0.55110   0.66810   0.43430
O          O       0.33190   0.88300   0.43430
O          O       0.88300   0.55110   0.93430
O          O       0.44890   0.33190   0.93430
O          O       0.66810   0.11700   0.93430
O          O       0.66810   0.55110   0.56570
O          O       0.88300   0.33190   0.56570
O          O       0.44890   0.11700   0.56570
O          O       0.33190   0.44890   0.06570
O          O       0.11700   0.66810   0.06570
O          O       0.55110   0.88300   0.06570
O          O       0.88300   0.55110   0.56570
O          O       0.44890   0.33190   0.56570
O          O       0.66810   0.11700   0.56570
O          O       0.11700   0.44890   0.06570
O          O       0.55110   0.66810   0.06570
O          O       0.33190   0.88300   0.06570
O          O       0.16920   0.33840   0.40170
O          O       0.16920   0.83080   0.40170
O          O       0.66160   0.83080   0.40170
O          O       0.83080   0.66160   0.90170
O          O       0.83080   0.16920   0.90170
O          O       0.33840   0.16920   0.90170
O          O       0.83080   0.66160   0.59830
O          O       0.83080   0.16920   0.59830
O          O       0.33840   0.16920   0.59830
O          O       0.16920   0.33840   0.09830
O          O       0.16920   0.83080   0.09830
O          O       0.66160   0.83080   0.09830
O          O       0.56860   0.13720   0.49940
O          O       0.56860   0.43140   0.49940
O          O       0.86280   0.43140   0.49940
O          O       0.43140   0.86280   0.99940
O          O       0.43140   0.56860   0.99940
O          O       0.13720   0.56860   0.99940
O          O       0.43140   0.86280   0.50060
O          O       0.43140   0.56860   0.50060
O          O       0.13720   0.56860   0.50060
O          O       0.56860   0.13720   0.00060
O          O       0.56860   0.43140   0.00060
O          O       0.86280   0.43140   0.00060
O          O       0.73750   0.26240   0.51140
O          O       0.52490   0.26250   0.51140
O          O       0.73760   0.47510   0.51140
O          O       0.26250   0.73760   0.01140
O          O       0.47510   0.73750   0.01140
O          O       0.26240   0.52490   0.01140
O          O       0.26250   0.73760   0.48860
O          O       0.47510   0.73750   0.48860
O          O       0.26240   0.52490   0.48860
O          O       0.73750   0.26240   0.98860
O          O       0.52490   0.26250   0.98860
O          O       0.73760   0.47510   0.98860
O          O       0.13880   0.56940   0.32090
O          O       0.43060   0.86120   0.32090
O          O       0.43060   0.56940   0.32090
O          O       0.86120   0.43060   0.82090
O          O       0.56940   0.13880   0.82090
O          O       0.56940   0.43060   0.82090
O          O       0.86120   0.43060   0.67910
O          O       0.56940   0.13880   0.67910
O          O       0.56940   0.43060   0.67910
O          O       0.13880   0.56940   0.17910
O          O       0.43060   0.86120   0.17910
O          O       0.43060   0.56940   0.17910
O          O       0.12410   0.45950   0.25000
O          O       0.33540   0.87590   0.25000
O          O       0.54050   0.66460   0.25000
O          O       0.87590   0.54050   0.75000
O          O       0.66460   0.12410   0.75000
O          O       0.45950   0.33540   0.75000
O          O       0.33540   0.45950   0.25000
O          O       0.54050   0.87590   0.25000
O          O       0.12410   0.66460   0.25000
O          O       0.66460   0.54050   0.75000
O          O       0.45950   0.12410   0.75000
O          O       0.87590   0.33540   0.75000
O          O       0.25980   0.51960   0.31130
O          O       0.25980   0.74020   0.31130
O          O       0.48040   0.74020   0.31130
O          O       0.74020   0.48040   0.81130
O          O       0.74020   0.25980   0.81130
O          O       0.51960   0.25980   0.81130
O          O       0.74020   0.48040   0.68870
O          O       0.74020   0.25980   0.68870
O          O       0.51960   0.25980   0.68870
O          O       0.25980   0.51960   0.18870
O          O       0.25980   0.74020   0.18870
O          O       0.48040   0.74020   0.18870
