data_crystal

_cell_length_a    16.89856
_cell_length_b    16.89856
_cell_length_c    16.89856
_cell_angle_alpha 61.14827
_cell_angle_beta  61.14827
_cell_angle_gamma 61.14827

_space_group_name_Hall 'P 1'
_space_group_name_H-M_alt 'P 1'

loop_
_symmetry_equiv_pos_as_xyz
 'x,y,z'

loop_
_atom_site_label
_atom_site_type_symbol
_atom_site_fract_x
_atom_site_fract_y
_atom_site_fract_z
O          O       0.25810   0.55080   0.55080
O          O       0.55080   0.25810   0.55080
O          O       0.55080   0.55080   0.25810
O          O       0.74190   0.44920   0.44920
O          O       0.44920   0.74190   0.44920
O          O       0.44920   0.44920   0.74190
O          O       0.38540   0.38530   0.60550
O          O       0.60550   0.38540   0.38530
O          O       0.38530   0.60550   0.38540
O          O       0.61460   0.61470   0.39450
O          O       0.39450   0.61460   0.61470
O          O       0.61470   0.39450   0.61460
O          O       0.20250   0.41260   0.70200
O          O       0.70200   0.20250   0.41260
O          O       0.41260   0.70200   0.20250
O          O       0.70200   0.41260   0.20250
O          O       0.41260   0.20250   0.70200
O          O       0.20250   0.70200   0.41260
O          O       0.79750   0.58740   0.29800
O          O       0.29800   0.79750   0.58740
O          O       0.58740   0.29800   0.79750
O          O       0.29800   0.58740   0.79750
O          O       0.58740   0.79750   0.29800
O          O       0.79750   0.29800   0.58740
O          O       0.29190   0.50000   0.70820
O          O       0.70820   0.29190   0.50000
O          O       0.50000   0.70820   0.29190
O          O       0.70820   0.50000   0.29190
O          O       0.50000   0.29190   0.70820
O          O       0.29190   0.70820   0.50000
O          O       0.86320   0.56900   0.56900
O          O       0.56900   0.86320   0.56900
O          O       0.56900   0.56900   0.86320
O          O       0.13680   0.43100   0.43100
O          O       0.43100   0.13680   0.43100
O          O       0.43100   0.43100   0.13680
O          O       0.83930   0.62440   0.40520
O          O       0.40520   0.83930   0.62440
O          O       0.62440   0.40520   0.83930
O          O       0.40520   0.62440   0.83930
O          O       0.62440   0.83930   0.40520
O          O       0.83930   0.40520   0.62440
O          O       0.16070   0.37560   0.59480
O          O       0.59480   0.16070   0.37560
O          O       0.37560   0.59480   0.16070
O          O       0.59480   0.37560   0.16070
O          O       0.37560   0.16070   0.59480
O          O       0.16070   0.59480   0.37560
O          O       0.73000   0.73000   0.51750
O          O       0.51750   0.73000   0.73000
O          O       0.73000   0.51750   0.73000
O          O       0.27000   0.27000   0.48250
O          O       0.48250   0.27000   0.27000
O          O       0.27000   0.48250   0.27000
O          O       0.91090   0.71680   0.42810
O          O       0.42810   0.91090   0.71680
O          O       0.71680   0.42810   0.91090
O          O       0.42810   0.71680   0.91090
O          O       0.71680   0.91090   0.42810
O          O       0.91090   0.42810   0.71680
O          O       0.08910   0.28320   0.57190
O          O       0.57190   0.08910   0.28320
O          O       0.28320   0.57190   0.08910
O          O       0.57190   0.28320   0.08910
O          O       0.28320   0.08910   0.57190
O          O       0.08910   0.57190   0.28320
O          O       0.05840   0.34930   0.77620
O          O       0.77620   0.05840   0.34930
O          O       0.34930   0.77620   0.05840
O          O       0.77620   0.34930   0.05840
O          O       0.34930   0.05840   0.77620
O          O       0.05840   0.77620   0.34930
O          O       0.94160   0.65070   0.22380
O          O       0.22380   0.94160   0.65070
O          O       0.65070   0.22380   0.94160
O          O       0.22380   0.65070   0.94160
O          O       0.65070   0.94160   0.22380
O          O       0.94160   0.22380   0.65070
O          O       0.00000   0.24290   0.75710
O          O       0.75710   1.00000   0.24290
O          O       0.24290   0.75710   1.00000
O          O       0.75710   0.24290   1.00000
O          O       0.24290   1.00000   0.75710
O          O       0.00000   0.75710   0.24290
O          O       0.89550   0.31820   0.89550
O          O       0.89550   0.89550   0.31820
O          O       0.31820   0.89550   0.89550
O          O       0.10450   0.68180   0.10450
O          O       0.10450   0.10450   0.68180
O          O       0.68180   0.10450   0.10450
O          O       0.72690   0.23480   0.23480
O          O       0.23480   0.72690   0.23480
O          O       0.23480   0.23480   0.72690
O          O       0.27310   0.76520   0.76520
O          O       0.76520   0.27310   0.76520
O          O       0.76520   0.76520   0.27310
Si         Si      0.28440   0.46220   0.64160
Si         Si      0.64160   0.28440   0.46220
Si         Si      0.46220   0.64160   0.28440
Si         Si      0.64160   0.46220   0.28440
Si         Si      0.46220   0.28440   0.64160
Si         Si      0.28440   0.64160   0.46220
Si         Si      0.71560   0.53780   0.35840
Si         Si      0.35840   0.71560   0.53780
Si         Si      0.53780   0.35840   0.71560
Si         Si      0.35840   0.53780   0.71560
Si         Si      0.53780   0.71560   0.35840
Si         Si      0.71560   0.35840   0.53780
Si         Si      0.96590   0.33470   0.78670
Si         Si      0.78670   0.96590   0.33470
Si         Si      0.33470   0.78670   0.96590
Si         Si      0.78670   0.33470   0.96590
Si         Si      0.33470   0.96590   0.78670
Si         Si      0.96590   0.78670   0.33470
Si         Si      0.03410   0.66530   0.21330
Si         Si      0.21330   0.03410   0.66530
Si         Si      0.66530   0.21330   0.03410
Si         Si      0.21330   0.66530   0.03410
Si         Si      0.66530   0.03410   0.21330
Si         Si      0.03410   0.21330   0.66530
Si         Si      0.70000   0.34310   0.16420
Si         Si      0.16420   0.70000   0.34310
Si         Si      0.34310   0.16420   0.70000
Si         Si      0.16420   0.34310   0.70000
Si         Si      0.34310   0.70000   0.16420
Si         Si      0.70000   0.16420   0.34310
Si         Si      0.30000   0.65690   0.83580
Si         Si      0.83580   0.30000   0.65690
Si         Si      0.65690   0.83580   0.30000
Si         Si      0.83580   0.65690   0.30000
Si         Si      0.65690   0.30000   0.83580
Si         Si      0.30000   0.83580   0.65690
Si         Si      0.83600   0.65980   0.47990
Si         Si      0.47990   0.83600   0.65980
Si         Si      0.65980   0.47990   0.83600
Si         Si      0.47990   0.65980   0.83600
Si         Si      0.65980   0.83600   0.47990
Si         Si      0.83600   0.47990   0.65980
Si         Si      0.16400   0.34020   0.52010
Si         Si      0.52010   0.16400   0.34020
Si         Si      0.34020   0.52010   0.16400
Si         Si      0.52010   0.34020   0.16400
Si         Si      0.34020   0.16400   0.52010
Si         Si      0.16400   0.52010   0.34020
