data_crystal

_cell_length_a    11.29319
_cell_length_b    14.47187
_cell_length_c    23.72894
_cell_angle_alpha 90.00000
_cell_angle_beta  90.00000
_cell_angle_gamma 90.00000

_space_group_name_Hall 'P 1'
_space_group_name_H-M_alt 'P 1'

loop_
_symmetry_equiv_pos_as_xyz
 'x,y,z'

loop_
_atom_site_label
_atom_site_type_symbol
_atom_site_fract_x
_atom_site_fract_y
_atom_site_fract_z
Si         Si      0.50904   0.09525   0.43233
Si         Si      0.50904   0.09525   0.06767
Si         Si      0.99096   0.09525   0.43233
Si         Si      0.99096   0.09525   0.06767
Si         Si      0.49096   0.90475   0.56767
Si         Si      0.49096   0.90475   0.93233
Si         Si      0.00904   0.90475   0.56767
Si         Si      0.00904   0.90475   0.93233
Si         Si      0.38998   0.22798   0.35781
Si         Si      0.38998   0.22798   0.14219
Si         Si      0.11002   0.22798   0.35781
Si         Si      0.11002   0.22798   0.14219
Si         Si      0.61002   0.77202   0.64219
Si         Si      0.61002   0.77202   0.85781
Si         Si      0.88998   0.77202   0.64219
Si         Si      0.88998   0.77202   0.85781
Si         Si      0.61580   0.07741   0.55196
Si         Si      0.61580   0.07741   0.94804
Si         Si      0.88420   0.07741   0.55196
Si         Si      0.88420   0.07741   0.94804
Si         Si      0.38420   0.92259   0.44804
Si         Si      0.38420   0.92259   0.05196
Si         Si      0.11580   0.92259   0.44804
Si         Si      0.11580   0.92259   0.05196
Si         Si      0.61507   0.20338   0.65560
Si         Si      0.61507   0.20338   0.84440
Si         Si      0.88493   0.20338   0.65560
Si         Si      0.88493   0.20338   0.84440
Si         Si      0.38493   0.79662   0.34440
Si         Si      0.38493   0.79662   0.15560
Si         Si      0.11507   0.79662   0.34440
Si         Si      0.11507   0.79662   0.15560
Si         Si      0.49691   0.40747   0.31572
Si         Si      0.49691   0.40747   0.18428
Si         Si      0.00309   0.40747   0.31572
Si         Si      0.00309   0.40747   0.18428
Si         Si      0.50309   0.59253   0.68428
Si         Si      0.50309   0.59253   0.81572
Si         Si      0.99691   0.59253   0.68428
Si         Si      0.99691   0.59253   0.81572
Si         Si      0.61756   0.40646   0.68232
Si         Si      0.61756   0.40646   0.81768
Si         Si      0.88244   0.40646   0.68232
Si         Si      0.88244   0.40646   0.81768
Si         Si      0.38244   0.59354   0.31768
Si         Si      0.38244   0.59354   0.18232
Si         Si      0.11756   0.59354   0.31768
Si         Si      0.11756   0.59354   0.18232
Si         Si      0.75000   0.31924   0.31427
Si         Si      0.75000   0.31924   0.18573
Si         Si      0.25000   0.68076   0.68573
Si         Si      0.25000   0.68076   0.81427
Si         Si      0.75000   0.12307   0.36636
Si         Si      0.75000   0.12307   0.13364
Si         Si      0.25000   0.87693   0.63364
Si         Si      0.25000   0.87693   0.86636
Si         Si      0.39051   0.12400   0.25000
Si         Si      0.10949   0.12400   0.25000
Si         Si      0.60949   0.87600   0.75000
Si         Si      0.89051   0.87600   0.75000
Si         Si      0.50521   0.07828   0.75000
Si         Si      0.99479   0.07828   0.75000
Si         Si      0.49479   0.92172   0.25000
Si         Si      0.00521   0.92172   0.25000
Si         Si      0.25000   0.98945   0.75000
Si         Si      0.75000   0.01055   0.25000
O          O       0.36632   0.05359   0.75000
O          O       0.13368   0.05359   0.75000
O          O       0.63368   0.94641   0.25000
O          O       0.86632   0.94641   0.25000
O          O       0.25000   0.92534   0.80533
O          O       0.25000   0.92534   0.69467
O          O       0.75000   0.07466   0.19467
O          O       0.75000   0.07466   0.30533
O          O       0.44555   0.17190   0.30543
O          O       0.44555   0.17190   0.19457
O          O       0.05445   0.17190   0.30543
O          O       0.05445   0.17190   0.19457
O          O       0.55445   0.82810   0.69457
O          O       0.55445   0.82810   0.80543
O          O       0.94555   0.82810   0.69457
O          O       0.94555   0.82810   0.80543
O          O       0.41675   0.01471   0.25000
O          O       0.08325   0.01471   0.25000
O          O       0.58325   0.98529   0.75000
O          O       0.91675   0.98529   0.75000
O          O       0.25000   0.14223   0.25000
O          O       0.75000   0.85777   0.75000
O          O       0.86591   0.38167   0.32512
O          O       0.86591   0.38167   0.17488
O          O       0.63409   0.38167   0.32512
O          O       0.63409   0.38167   0.17488
O          O       0.13409   0.61833   0.67488
O          O       0.13409   0.61833   0.82512
O          O       0.36591   0.61833   0.67488
O          O       0.36591   0.61833   0.82512
O          O       0.75000   0.23340   0.35752
O          O       0.75000   0.23340   0.14248
O          O       0.25000   0.76660   0.64248
O          O       0.25000   0.76660   0.85752
O          O       0.75000   0.28324   0.25000
O          O       0.25000   0.71676   0.75000
O          O       0.44911   0.19258   0.41571
O          O       0.44911   0.19258   0.08429
O          O       0.05089   0.19258   0.41571
O          O       0.05089   0.19258   0.08429
O          O       0.55089   0.80742   0.58429
O          O       0.55089   0.80742   0.91571
O          O       0.94911   0.80742   0.58429
O          O       0.94911   0.80742   0.91571
O          O       0.52613   0.08893   0.49960
O          O       0.52613   0.08893   0.00040
O          O       0.97387   0.08893   0.49960
O          O       0.97387   0.08893   0.00040
O          O       0.47387   0.91107   0.50040
O          O       0.47387   0.91107   0.99960
O          O       0.02613   0.91107   0.50040
O          O       0.02613   0.91107   0.99960
O          O       0.42335   0.01231   0.41225
O          O       0.42335   0.01231   0.08775
O          O       0.07665   0.01231   0.41225
O          O       0.07665   0.01231   0.08775
O          O       0.57665   0.98769   0.58775
O          O       0.57665   0.98769   0.91225
O          O       0.92335   0.98769   0.58775
O          O       0.92335   0.98769   0.91225
O          O       0.63462   0.08941   0.40055
O          O       0.63462   0.08941   0.09945
O          O       0.86538   0.08941   0.40055
O          O       0.86538   0.08941   0.09945
O          O       0.36538   0.91059   0.59945
O          O       0.36538   0.91059   0.90055
O          O       0.13462   0.91059   0.59945
O          O       0.13462   0.91059   0.90055
O          O       0.41474   0.33689   0.35080
O          O       0.41474   0.33689   0.14920
O          O       0.08526   0.33689   0.35080
O          O       0.08526   0.33689   0.14920
O          O       0.58526   0.66311   0.64920
O          O       0.58526   0.66311   0.85080
O          O       0.91474   0.66311   0.64920
O          O       0.91474   0.66311   0.85080
O          O       0.25000   0.20831   0.36041
O          O       0.25000   0.20831   0.13959
O          O       0.75000   0.79169   0.63959
O          O       0.75000   0.79169   0.86041
O          O       0.53341   0.13842   0.80545
O          O       0.53341   0.13842   0.69455
O          O       0.96659   0.13842   0.80545
O          O       0.96659   0.13842   0.69455
O          O       0.46659   0.86158   0.19455
O          O       0.46659   0.86158   0.30545
O          O       0.03341   0.86158   0.19455
O          O       0.03341   0.86158   0.30545
O          O       0.60883   0.16791   0.59135
O          O       0.60883   0.16791   0.90865
O          O       0.89117   0.16791   0.59135
O          O       0.89117   0.16791   0.90865
O          O       0.39117   0.83209   0.40865
O          O       0.39117   0.83209   0.09135
O          O       0.10883   0.83209   0.40865
O          O       0.10883   0.83209   0.09135
O          O       0.75000   0.06614   0.52977
O          O       0.75000   0.06614   0.97023
O          O       0.25000   0.93386   0.47023
O          O       0.25000   0.93386   0.02977
O          O       0.56987   0.30880   0.65894
O          O       0.56987   0.30880   0.84106
O          O       0.93013   0.30880   0.65894
O          O       0.93013   0.30880   0.84106
O          O       0.43013   0.69120   0.34106
O          O       0.43013   0.69120   0.15894
O          O       0.06987   0.69120   0.34106
O          O       0.06987   0.69120   0.15894
O          O       0.75000   0.19816   0.67731
O          O       0.75000   0.19816   0.82269
O          O       0.25000   0.80184   0.32269
O          O       0.25000   0.80184   0.17731
O          O       0.46961   0.51119   0.33670
O          O       0.46961   0.51119   0.16330
O          O       0.03039   0.51119   0.33670
O          O       0.03039   0.51119   0.16330
O          O       0.53039   0.48881   0.66330
O          O       0.53039   0.48881   0.83670
O          O       0.96961   0.48881   0.66330
O          O       0.96961   0.48881   0.83670
O          O       0.46353   0.39858   0.25000
O          O       0.03647   0.39858   0.25000
O          O       0.53647   0.60142   0.75000
O          O       0.96353   0.60142   0.75000
O          O       0.75000   0.42430   0.65936
O          O       0.75000   0.42430   0.84064
O          O       0.25000   0.57570   0.34064
O          O       0.25000   0.57570   0.15936
O          O       0.62194   0.40252   0.75000
O          O       0.87806   0.40252   0.75000
O          O       0.37806   0.59748   0.25000
O          O       0.12194   0.59748   0.25000
