data_crystal

_cell_length_a    5.25500
_cell_length_b    11.45700
_cell_length_c    13.99400
_cell_angle_alpha 100.96000
_cell_angle_beta  90.00000
_cell_angle_gamma 90.00000

_space_group_name_Hall 'P 1'
_space_group_name_H-M_alt 'P 1'

loop_
_symmetry_equiv_pos_as_xyz
 'x,y,z'

loop_
_atom_site_label
_atom_site_type_symbol
_atom_site_fract_x
_atom_site_fract_y
_atom_site_fract_z
Si         Si      0.75000   0.74880   0.81310
Si         Si      0.25000   0.25120   0.18690
Si         Si      0.75000   0.59760   0.61220
Si         Si      0.25000   0.40240   0.38780
Si         Si      0.75000   0.56130   0.39510
Si         Si      0.25000   0.43870   0.60490
Si         Si      0.75000   0.36530   0.10900
Si         Si      0.25000   0.63470   0.89100
Si         Si      0.75000   0.64360   0.20430
Si         Si      0.25000   0.35640   0.79570
Si         Si      0.75000   0.26300   0.88440
Si         Si      0.25000   0.73700   0.11560
Si         Si      0.75000   0.00420   0.93470
Si         Si      0.25000   0.99580   0.06530
O          O       0.75000   0.71530   0.69600
O          O       0.25000   0.28470   0.30400
O          O       0.50000   0.69440   0.85450
O          O       0.00000   0.30560   0.14550
O          O       0.50000   0.30560   0.14550
O          O       0.00000   0.69440   0.85450
O          O       0.75000   0.89130   0.84640
O          O       0.25000   0.10870   0.15360
O          O       0.75000   0.63260   0.50600
O          O       0.25000   0.36740   0.49400
O          O       0.00000   0.52080   0.62430
O          O       0.50000   0.47920   0.37570
O          O       0.00000   0.47920   0.37570
O          O       0.50000   0.52080   0.62430
O          O       0.75000   0.65250   0.32060
O          O       0.25000   0.34750   0.67940
O          O       0.75000   0.34360   0.99190
O          O       0.25000   0.65640   0.00810
O          O       0.75000   0.50600   0.15150
O          O       0.25000   0.49400   0.84850
O          O       0.49990   0.70850   0.17350
O          O       0.99990   0.29150   0.82650
O          O       0.50010   0.29150   0.82650
O          O       0.00010   0.70850   0.17350
O          O       0.75000   0.12430   0.89100
O          O       0.25000   0.87570   0.10900
O          O       0.00000   0.00000   0.00000
O          O       0.50000   0.00000   0.00000
