data_crystal

_cell_length_a    7.22700
_cell_length_b    11.45400
_cell_length_c    21.69500
_cell_angle_alpha 90.00000
_cell_angle_beta  90.00000
_cell_angle_gamma 93.15400

_space_group_name_Hall 'P 1'
_space_group_name_H-M_alt 'P 1'

loop_
_symmetry_equiv_pos_as_xyz
 'x,y,z'

loop_
_atom_site_label
_atom_site_type_symbol
_atom_site_fract_x
_atom_site_fract_y
_atom_site_fract_z
Si         Si      0.92050   0.26430   0.98900
Si         Si      0.07950   0.73570   0.48900
Si         Si      0.07950   0.73570   0.01100
Si         Si      0.92050   0.26430   0.51100
Si         Si      0.08040   0.15020   0.63240
Si         Si      0.91960   0.84980   0.13240
Si         Si      0.91960   0.84980   0.36760
Si         Si      0.08040   0.15020   0.86760
Si         Si      0.46500   0.23330   0.67980
Si         Si      0.53500   0.76670   0.17980
Si         Si      0.53500   0.76670   0.32020
Si         Si      0.46500   0.23330   0.82020
Si         Si      0.58390   0.38820   0.56690
Si         Si      0.41610   0.61180   0.06690
Si         Si      0.41610   0.61180   0.43310
Si         Si      0.58390   0.38820   0.93310
Si         Si      0.72820   0.03500   0.68200
Si         Si      0.27180   0.96500   0.18200
Si         Si      0.27180   0.96500   0.31800
Si         Si      0.72820   0.03500   0.81800
Si         Si      0.76560   0.03470   0.04800
Si         Si      0.23440   0.96530   0.54800
Si         Si      0.23440   0.96530   0.95200
Si         Si      0.76560   0.03470   0.45200
Si         Si      0.34730   0.10920   0.06630
Si         Si      0.65270   0.89080   0.56630
Si         Si      0.65270   0.89080   0.93370
Si         Si      0.34730   0.10920   0.43370
Si         Si      0.28280   0.36790   0.03150
Si         Si      0.71720   0.63210   0.53150
Si         Si      0.71720   0.63210   0.96850
Si         Si      0.28280   0.36790   0.46850
O          O       0.00970   0.22500   0.92480
O          O       0.99030   0.77500   0.42480
O          O       0.99030   0.77500   0.07520
O          O       0.00970   0.22500   0.57520
O          O       0.72500   0.32030   0.97580
O          O       0.27500   0.67970   0.47580
O          O       0.27500   0.67970   0.02420
O          O       0.72500   0.32030   0.52420
O          O       0.06140   0.35890   0.02180
O          O       0.93860   0.64110   0.52180
O          O       0.93860   0.64110   0.97820
O          O       0.06140   0.35890   0.47820
O          O       0.89020   0.15230   0.03340
O          O       0.10980   0.84770   0.53340
O          O       0.10980   0.84770   0.96660
O          O       0.89020   0.15230   0.46660
O          O       0.15440   0.02860   0.60790
O          O       0.84560   0.97140   0.10790
O          O       0.84560   0.97140   0.39210
O          O       0.15440   0.02860   0.89210
O          O       0.24510   0.22410   0.66730
O          O       0.75490   0.77590   0.16730
O          O       0.75490   0.77590   0.33270
O          O       0.24510   0.22410   0.83270
O          O       0.91010   0.12260   0.67900
O          O       0.08990   0.87740   0.17900
O          O       0.08990   0.87740   0.32100
O          O       0.91010   0.12260   0.82100
O          O       0.50310   0.27350   0.75000
O          O       0.49690   0.72650   0.25000
O          O       0.56500   0.32660   0.63340
O          O       0.43500   0.67340   0.13340
O          O       0.43500   0.67340   0.36660
O          O       0.56500   0.32660   0.86660
O          O       0.54730   0.10710   0.66880
O          O       0.45270   0.89290   0.16880
O          O       0.45270   0.89290   0.33120
O          O       0.54730   0.10710   0.83120
O          O       0.38340   0.38570   0.53440
O          O       0.61660   0.61430   0.03440
O          O       0.61660   0.61430   0.46560
O          O       0.38340   0.38570   0.96560
O          O       0.66080   0.52210   0.57510
O          O       0.33920   0.47790   0.07510
O          O       0.33920   0.47790   0.42490
O          O       0.66080   0.52210   0.92490
O          O       0.74230   0.93410   0.63090
O          O       0.25770   0.06590   0.13090
O          O       0.25770   0.06590   0.36910
O          O       0.74230   0.93410   0.86910
O          O       0.71280   0.97850   0.75000
O          O       0.28720   0.02150   0.25000
O          O       0.77220   0.94750   0.98990
O          O       0.22780   0.05250   0.48990
O          O       0.22780   0.05250   0.01010
O          O       0.77220   0.94750   0.51010
O          O       0.55590   0.06770   0.06130
O          O       0.44410   0.93230   0.56130
O          O       0.44410   0.93230   0.93870
O          O       0.55590   0.06770   0.43870
O          O       0.34820   0.24950   0.06270
O          O       0.65180   0.75050   0.56270
O          O       0.65180   0.75050   0.93730
O          O       0.34820   0.24950   0.43730
