data_crystal

_cell_length_a    12.57500
_cell_length_b    13.06600
_cell_length_c    25.53200
_cell_angle_alpha 90.00000
_cell_angle_beta  90.00000
_cell_angle_gamma 90.00000

_space_group_name_Hall 'P 1'
_space_group_name_H-M_alt 'P 1'

loop_
_symmetry_equiv_pos_as_xyz
 'x,y,z'

loop_
_atom_site_label
_atom_site_type_symbol
_atom_site_fract_x
_atom_site_fract_y
_atom_site_fract_z
Si         Si      0.18690   0.35140   0.13410
Si         Si      0.18690   0.35140   0.36590
Si         Si      0.81310   0.35140   0.13410
Si         Si      0.81310   0.35140   0.36590
Si         Si      0.81310   0.64860   0.86590
Si         Si      0.81310   0.64860   0.63410
Si         Si      0.18690   0.64860   0.86590
Si         Si      0.18690   0.64860   0.63410
Si         Si      0.12260   0.11670   0.15290
Si         Si      0.12260   0.11670   0.34710
Si         Si      0.87740   0.11670   0.15290
Si         Si      0.87740   0.11670   0.34710
Si         Si      0.87740   0.88330   0.84710
Si         Si      0.87740   0.88330   0.65290
Si         Si      0.12260   0.88330   0.84710
Si         Si      0.12260   0.88330   0.65290
Si         Si      0.19330   0.74270   0.08110
Si         Si      0.19330   0.74270   0.41890
Si         Si      0.80670   0.74270   0.08110
Si         Si      0.80670   0.74270   0.41890
Si         Si      0.80670   0.25730   0.91890
Si         Si      0.80670   0.25730   0.58110
Si         Si      0.19330   0.25730   0.91890
Si         Si      0.19330   0.25730   0.58110
Si         Si      0.37470   0.68100   0.15400
Si         Si      0.37470   0.68100   0.34600
Si         Si      0.62530   0.68100   0.15400
Si         Si      0.62530   0.68100   0.34600
Si         Si      0.62530   0.31900   0.84600
Si         Si      0.62530   0.31900   0.65400
Si         Si      0.37470   0.31900   0.84600
Si         Si      0.37470   0.31900   0.65400
Si         Si      0.00000   0.46910   0.19060
Si         Si      0.00000   0.46910   0.30940
Si         Si      0.00000   0.53090   0.80940
Si         Si      0.00000   0.53090   0.69060
Si         Si      0.00000   0.69670   0.15770
Si         Si      0.00000   0.69670   0.34230
Si         Si      0.00000   0.30330   0.84230
Si         Si      0.00000   0.30330   0.65770
Si         Si      0.12220   0.38300   0.01890
Si         Si      0.12220   0.38300   0.48110
Si         Si      0.87780   0.38300   0.01890
Si         Si      0.87780   0.38300   0.48110
Si         Si      0.87780   0.61700   0.98110
Si         Si      0.87780   0.61700   0.51890
Si         Si      0.12220   0.61700   0.98110
Si         Si      0.12220   0.61700   0.51890
Si         Si      0.37770   0.45240   0.18800
Si         Si      0.37770   0.45240   0.31200
Si         Si      0.62230   0.45240   0.18800
Si         Si      0.62230   0.45240   0.31200
Si         Si      0.62230   0.54760   0.81200
Si         Si      0.62230   0.54760   0.68800
Si         Si      0.37770   0.54760   0.81200
Si         Si      0.37770   0.54760   0.68800
Si         Si      0.20690   0.00520   0.25000
Si         Si      0.79310   0.00520   0.25000
Si         Si      0.79310   0.99480   0.75000
Si         Si      0.20690   0.99480   0.75000
Si         Si      0.00000   0.86080   0.25000
Si         Si      0.00000   0.13920   0.75000
Si         Si      0.12470   0.96590   0.05770
Si         Si      0.12470   0.96590   0.44230
Si         Si      0.87530   0.96590   0.05770
Si         Si      0.87530   0.96590   0.44230
Si         Si      0.87530   0.03410   0.94230
Si         Si      0.87530   0.03410   0.55770
Si         Si      0.12470   0.03410   0.94230
Si         Si      0.12470   0.03410   0.55770
Si         Si      0.37440   0.82800   0.25000
Si         Si      0.62560   0.82800   0.25000
Si         Si      0.62560   0.17200   0.75000
Si         Si      0.37440   0.17200   0.75000
O          O       0.10480   0.43090   0.16030
O          O       0.10480   0.43090   0.33970
O          O       0.89520   0.43090   0.16030
O          O       0.89520   0.43090   0.33970
O          O       0.89520   0.56910   0.83970
O          O       0.89520   0.56910   0.66030
O          O       0.10480   0.56910   0.83970
O          O       0.10480   0.56910   0.66030
O          O       0.19050   0.37040   0.07190
O          O       0.19050   0.37040   0.42810
O          O       0.80950   0.37040   0.07190
O          O       0.80950   0.37040   0.42810
O          O       0.80950   0.62960   0.92810
O          O       0.80950   0.62960   0.57190
O          O       0.19050   0.62960   0.92810
O          O       0.19050   0.62960   0.57190
O          O       0.30370   0.37070   0.15790
O          O       0.30370   0.37070   0.34210
O          O       0.69630   0.37070   0.15790
O          O       0.69630   0.37070   0.34210
O          O       0.69630   0.62930   0.84210
O          O       0.69630   0.62930   0.65790
O          O       0.30370   0.62930   0.84210
O          O       0.30370   0.62930   0.65790
O          O       0.14660   0.23670   0.14520
O          O       0.14660   0.23670   0.35480
O          O       0.85340   0.23670   0.14520
O          O       0.85340   0.23670   0.35480
O          O       0.85340   0.76330   0.85480
O          O       0.85340   0.76330   0.64520
O          O       0.14660   0.76330   0.85480
O          O       0.14660   0.76330   0.64520
O          O       0.20060   0.07510   0.19820
O          O       0.20060   0.07510   0.30180
O          O       0.79940   0.07510   0.19820
O          O       0.79940   0.07510   0.30180
O          O       0.79940   0.92490   0.80180
O          O       0.79940   0.92490   0.69820
O          O       0.20060   0.92490   0.80180
O          O       0.20060   0.92490   0.69820
O          O       0.00000   0.10100   0.16940
O          O       0.00000   0.10100   0.33060
O          O       0.00000   0.89900   0.83060
O          O       0.00000   0.89900   0.66940
O          O       0.14560   0.05700   0.09890
O          O       0.14560   0.05700   0.40110
O          O       0.85440   0.05700   0.09890
O          O       0.85440   0.05700   0.40110
O          O       0.85440   0.94300   0.90110
O          O       0.85440   0.94300   0.59890
O          O       0.14560   0.94300   0.90110
O          O       0.14560   0.94300   0.59890
O          O       0.18920   0.86550   0.07600
O          O       0.18920   0.86550   0.42400
O          O       0.81080   0.86550   0.07600
O          O       0.81080   0.86550   0.42400
O          O       0.81080   0.13450   0.92400
O          O       0.81080   0.13450   0.57600
O          O       0.18920   0.13450   0.92400
O          O       0.18920   0.13450   0.57600
O          O       0.17150   0.69210   0.02470
O          O       0.17150   0.69210   0.47530
O          O       0.82850   0.69210   0.02470
O          O       0.82850   0.69210   0.47530
O          O       0.82850   0.30790   0.97530
O          O       0.82850   0.30790   0.52470
O          O       0.17150   0.30790   0.97530
O          O       0.17150   0.30790   0.52470
O          O       0.10470   0.70270   0.12170
O          O       0.10470   0.70270   0.37830
O          O       0.89530   0.70270   0.12170
O          O       0.89530   0.70270   0.37830
O          O       0.89530   0.29730   0.87830
O          O       0.89530   0.29730   0.62170
O          O       0.10470   0.29730   0.87830
O          O       0.10470   0.29730   0.62170
O          O       0.30900   0.70820   0.10160
O          O       0.30900   0.70820   0.39840
O          O       0.69100   0.70820   0.10160
O          O       0.69100   0.70820   0.39840
O          O       0.69100   0.29180   0.89840
O          O       0.69100   0.29180   0.60160
O          O       0.30900   0.29180   0.89840
O          O       0.30900   0.29180   0.60160
O          O       0.50000   0.68680   0.14160
O          O       0.50000   0.68680   0.35840
O          O       0.50000   0.31320   0.85840
O          O       0.50000   0.31320   0.64160
O          O       0.34350   0.56740   0.17290
O          O       0.34350   0.56740   0.32710
O          O       0.65650   0.56740   0.17290
O          O       0.65650   0.56740   0.32710
O          O       0.65650   0.43260   0.82710
O          O       0.65650   0.43260   0.67290
O          O       0.34350   0.43260   0.82710
O          O       0.34350   0.43260   0.67290
O          O       0.34410   0.76300   0.19860
O          O       0.34410   0.76300   0.30140
O          O       0.65590   0.76300   0.19860
O          O       0.65590   0.76300   0.30140
O          O       0.65590   0.23700   0.80140
O          O       0.65590   0.23700   0.69860
O          O       0.34410   0.23700   0.80140
O          O       0.34410   0.23700   0.69860
O          O       0.00000   0.59230   0.19120
O          O       0.00000   0.59230   0.30880
O          O       0.00000   0.40770   0.80880
O          O       0.00000   0.40770   0.69120
O          O       0.00000   0.42770   0.25000
O          O       0.00000   0.57230   0.75000
O          O       0.00000   0.79130   0.19810
O          O       0.00000   0.79130   0.30190
O          O       0.00000   0.20870   0.80190
O          O       0.00000   0.20870   0.69810
O          O       0.12990   0.50000   0.00000
O          O       0.12990   0.50000   0.50000
O          O       0.87010   0.50000   0.00000
O          O       0.87010   0.50000   0.50000
O          O       0.00000   0.35310   0.02980
O          O       0.00000   0.35310   0.47020
O          O       0.00000   0.64690   0.97020
O          O       0.00000   0.64690   0.52980
O          O       0.36400   0.43520   0.25000
O          O       0.63600   0.43520   0.25000
O          O       0.63600   0.56480   0.75000
O          O       0.36400   0.56480   0.75000
O          O       0.50000   0.43410   0.17180
O          O       0.50000   0.43410   0.32820
O          O       0.50000   0.56590   0.82820
O          O       0.50000   0.56590   0.67180
O          O       0.31280   0.93600   0.25000
O          O       0.68720   0.93600   0.25000
O          O       0.68720   0.06400   0.75000
O          O       0.31280   0.06400   0.75000
O          O       0.10460   0.93130   0.25000
O          O       0.89540   0.93130   0.25000
O          O       0.89540   0.06870   0.75000
O          O       0.10460   0.06870   0.75000
O          O       0.16230   0.00000   0.00000
O          O       0.16230   0.00000   0.50000
O          O       0.83770   0.00000   0.00000
O          O       0.83770   0.00000   0.50000
O          O       0.00000   0.93860   0.05640
O          O       0.00000   0.93860   0.44360
O          O       0.00000   0.06140   0.94360
O          O       0.00000   0.06140   0.55640
O          O       0.50000   0.85100   0.25000
O          O       0.50000   0.14900   0.75000
