data_crystal

_cell_length_a    5.25500
_cell_length_b    17.35950
_cell_length_c    21.51800
_cell_angle_alpha 90.00000
_cell_angle_beta  90.00000
_cell_angle_gamma 98.70564

_space_group_name_Hall 'P 1'
_space_group_name_H-M_alt 'P 1'

loop_
_symmetry_equiv_pos_as_xyz
 'x,y,z'

loop_
_atom_site_label
_atom_site_type_symbol
_atom_site_fract_x
_atom_site_fract_y
_atom_site_fract_z
O          O       0.05090   0.10180   0.94680
O          O       0.94910   0.89820   0.44680
O          O       0.94910   0.89820   0.05320
O          O       0.05090   0.10180   0.55320
O          O       0.33890   0.17800   0.03360
O          O       0.83910   0.17800   0.03360
O          O       0.16090   0.82200   0.53360
O          O       0.66110   0.82200   0.53360
O          O       0.66110   0.82200   0.96640
O          O       0.16090   0.82200   0.96640
O          O       0.83910   0.17800   0.46640
O          O       0.33890   0.17800   0.46640
O          O       0.02540   0.05080   0.06230
O          O       0.97460   0.94920   0.56230
O          O       0.97460   0.94920   0.93770
O          O       0.02540   0.05080   0.43770
O          O       0.45550   0.41100   0.96510
O          O       0.95550   0.41100   0.96510
O          O       0.04450   0.58900   0.46510
O          O       0.54450   0.58900   0.46510
O          O       0.54450   0.58900   0.03490
O          O       0.04450   0.58900   0.03490
O          O       0.95550   0.41100   0.53490
O          O       0.45550   0.41100   0.53490
O          O       0.73030   0.46060   0.06300
O          O       0.26970   0.53940   0.56300
O          O       0.26970   0.53940   0.93700
O          O       0.73030   0.46060   0.43700
O          O       0.65530   0.31060   0.03360
O          O       0.34470   0.68940   0.53360
O          O       0.34470   0.68940   0.96640
O          O       0.65530   0.31060   0.46640
O          O       0.42060   0.84120   0.17770
O          O       0.57940   0.15880   0.67770
O          O       0.57940   0.15880   0.82230
O          O       0.42060   0.84120   0.32230
O          O       0.60560   0.71140   0.15810
O          O       0.10580   0.71140   0.15810
O          O       0.89420   0.28860   0.65810
O          O       0.39440   0.28860   0.65810
O          O       0.39440   0.28860   0.84190
O          O       0.89420   0.28860   0.84190
O          O       0.10580   0.71140   0.34190
O          O       0.60560   0.71140   0.34190
O          O       0.38920   0.77840   0.06630
O          O       0.61080   0.22160   0.56630
O          O       0.61080   0.22160   0.93370
O          O       0.38920   0.77840   0.43370
O          O       0.79060   0.58120   0.13950
O          O       0.20940   0.41880   0.63950
O          O       0.20940   0.41880   0.86050
O          O       0.79060   0.58120   0.36050
O          O       0.26640   0.03300   0.64410
O          O       0.76660   0.03300   0.64410
O          O       0.23340   0.96700   0.14410
O          O       0.73360   0.96700   0.14410
O          O       0.73360   0.96700   0.35590
O          O       0.23340   0.96700   0.35590
O          O       0.76660   0.03300   0.85590
O          O       0.26640   0.03300   0.85590
O          O       0.82220   0.64440   0.25000
O          O       0.17780   0.35560   0.75000
O          O       0.48210   0.96420   0.25000
O          O       0.51790   0.03580   0.75000
Si         Si      0.06350   0.12700   0.01890
Si         Si      0.93650   0.87300   0.51890
Si         Si      0.93650   0.87300   0.98110
Si         Si      0.06350   0.12700   0.48110
Si         Si      0.69910   0.39820   0.00700
Si         Si      0.30090   0.60180   0.50700
Si         Si      0.30090   0.60180   0.99300
Si         Si      0.69910   0.39820   0.49300
Si         Si      0.38020   0.76040   0.13970
Si         Si      0.61980   0.23960   0.63970
Si         Si      0.61980   0.23960   0.86030
Si         Si      0.38020   0.76040   0.36030
Si         Si      0.77710   0.55420   0.06780
Si         Si      0.22290   0.44580   0.56780
Si         Si      0.22290   0.44580   0.93220
Si         Si      0.77710   0.55420   0.43220
Si         Si      0.01480   0.02960   0.60100
Si         Si      0.98520   0.97040   0.10100
Si         Si      0.98520   0.97040   0.39900
Si         Si      0.01480   0.02960   0.89900
Si         Si      0.38890   0.77780   0.99160
Si         Si      0.61110   0.22220   0.49160
Si         Si      0.61110   0.22220   0.00840
Si         Si      0.38890   0.77780   0.50840
Si         Si      0.83130   0.66260   0.17670
Si         Si      0.16870   0.33740   0.67670
Si         Si      0.16870   0.33740   0.82330
Si         Si      0.83130   0.66260   0.32330
Si         Si      0.46750   0.93500   0.17880
Si         Si      0.53250   0.06500   0.67880
Si         Si      0.53250   0.06500   0.82120
Si         Si      0.46750   0.93500   0.32120
