data_crystal

_cell_length_a    5.25600
_cell_length_b    12.88142
_cell_length_c    15.02200
_cell_angle_alpha 103.59219
_cell_angle_beta  90.00000
_cell_angle_gamma 101.77183

_space_group_name_Hall 'P 1'
_space_group_name_H-M_alt 'P 1'

loop_
_symmetry_equiv_pos_as_xyz
 'x,y,z'

loop_
_atom_site_label
_atom_site_type_symbol
_atom_site_fract_x
_atom_site_fract_y
_atom_site_fract_z
O          O       0.01320   0.02640   0.40220
O          O       0.98680   0.97360   0.59780
O          O       0.18240   0.86460   0.29510
O          O       0.31780   0.13540   0.70490
O          O       0.81760   0.13540   0.70490
O          O       0.68220   0.86460   0.29510
O          O       0.91600   0.83200   0.43770
O          O       0.08400   0.16800   0.56230
O          O       0.64460   0.78920   0.57670
O          O       0.85540   0.21080   0.42330
O          O       0.35540   0.21080   0.42330
O          O       0.14460   0.78920   0.57670
O          O       0.32990   0.65980   0.65860
O          O       0.67010   0.34020   0.34140
O          O       0.99080   0.48160   0.66800
O          O       0.50920   0.51840   0.33200
O          O       0.00920   0.51840   0.33200
O          O       0.49080   0.48160   0.66800
O          O       0.29620   0.59240   0.81110
O          O       0.70380   0.40760   0.18890
O          O       0.36490   0.72980   0.16430
O          O       0.63510   0.27020   0.83570
O          O       0.34980   0.69960   0.33200
O          O       0.65020   0.30040   0.66800
O          O       0.31010   0.62020   0.47850
O          O       0.68990   0.37980   0.52150
O          O       0.30840   0.61680   0.99120
O          O       0.69160   0.38320   0.00880
O          O       0.52270   0.54520   0.11650
O          O       0.97750   0.45480   0.88350
O          O       0.47730   0.45480   0.88350
O          O       0.02250   0.54520   0.11650
Si         Si      0.94850   0.89700   0.35760
Si         Si      0.05150   0.10300   0.64240
Si         Si      0.92300   0.84600   0.54710
Si         Si      0.07700   0.15400   0.45290
Si         Si      0.27700   0.55400   0.70070
Si         Si      0.72300   0.44600   0.29930
Si         Si      0.39460   0.78920   0.27180
Si         Si      0.60540   0.21080   0.72820
Si         Si      0.35720   0.71440   0.57220
Si         Si      0.64280   0.28560   0.42780
Si         Si      0.29470   0.58940   0.36810
Si         Si      0.70530   0.41060   0.63190
Si         Si      0.30470   0.60940   0.09680
Si         Si      0.69530   0.39060   0.90320
Si         Si      0.26520   0.53040   0.89310
Si         Si      0.73480   0.46960   0.10690
