data_crystal

_cell_length_a    6.97100
_cell_length_b    13.17358
_cell_length_c    13.17358
_cell_angle_alpha 61.99091
_cell_angle_beta  82.27993
_cell_angle_gamma 82.27993

_space_group_name_Hall 'P 1'
_space_group_name_H-M_alt 'P 1'

loop_
_symmetry_equiv_pos_as_xyz
 'x,y,z'

loop_
_atom_site_label
_atom_site_type_symbol
_atom_site_fract_x
_atom_site_fract_y
_atom_site_fract_z
O          O       0.04670   0.07180   0.07180
O          O       0.95330   0.92820   0.92820
O          O       0.08250   0.34560   0.08620
O          O       0.91750   0.91380   0.65440
O          O       0.91750   0.65440   0.91380
O          O       0.08250   0.08620   0.34560
O          O       0.00000   0.14770   0.85230
O          O       0.00000   0.85230   0.14770
O          O       0.85620   0.27920   0.27920
O          O       0.14380   0.72080   0.72080
O          O       0.42390   0.34450   0.97350
O          O       0.57610   0.02650   0.65550
O          O       0.57610   0.65550   0.02650
O          O       0.42390   0.97350   0.34450
O          O       0.14370   0.87040   0.50060
O          O       0.85630   0.49940   0.12960
O          O       0.85630   0.12960   0.49940
O          O       0.14370   0.50060   0.87040
O          O       0.12150   0.28380   0.92120
O          O       0.87850   0.07880   0.71620
O          O       0.87850   0.71620   0.07880
O          O       0.12150   0.92120   0.28380
O          O       0.70440   0.08100   0.35700
O          O       0.29560   0.64300   0.91900
O          O       0.29560   0.91900   0.64300
O          O       0.70440   0.35700   0.08100
O          O       0.76070   0.22730   0.97530
O          O       0.23930   0.02470   0.77270
O          O       0.23930   0.77270   0.02470
O          O       0.76070   0.97530   0.22730
O          O       0.52950   0.16560   0.16560
O          O       0.47050   0.83440   0.83440
Si         Si      0.19310   0.36840   0.96280
Si         Si      0.80690   0.03720   0.63160
Si         Si      0.80690   0.63160   0.03720
Si         Si      0.19310   0.96280   0.36840
Si         Si      0.98220   0.95530   0.18250
Si         Si      0.01780   0.81750   0.04470
Si         Si      0.01780   0.04470   0.81750
Si         Si      0.98220   0.18250   0.95530
Si         Si      0.87480   0.14420   0.37020
Si         Si      0.12520   0.62980   0.85580
Si         Si      0.12520   0.85580   0.62980
Si         Si      0.87480   0.37020   0.14420
Si         Si      0.60460   0.27360   0.04880
Si         Si      0.39540   0.95120   0.72640
Si         Si      0.39540   0.72640   0.95120
Si         Si      0.60460   0.04880   0.27360
