data_crystal

_cell_length_a    12.48800
_cell_length_b    14.01300
_cell_length_c    20.02700
_cell_angle_alpha 90.00000
_cell_angle_beta  90.00000
_cell_angle_gamma 106.08000

_space_group_name_Hall 'P 1'
_space_group_name_H-M_alt 'P 1'

loop_
_symmetry_equiv_pos_as_xyz
 'x,y,z'

loop_
_atom_site_label
_atom_site_type_symbol
_atom_site_fract_x
_atom_site_fract_y
_atom_site_fract_z
Si         Si      0.40990   0.08410   0.56020
Si         Si      0.59010   0.91590   0.06020
Si         Si      0.59010   0.91590   0.43980
Si         Si      0.40990   0.08410   0.93980
Si         Si      0.40240   0.29290   0.12230
Si         Si      0.59760   0.70710   0.62230
Si         Si      0.59760   0.70710   0.87770
Si         Si      0.40240   0.29290   0.37770
Si         Si      0.78320   0.27270   0.12360
Si         Si      0.21680   0.72730   0.62360
Si         Si      0.21680   0.72730   0.87640
Si         Si      0.78320   0.27270   0.37640
Si         Si      0.65360   0.41170   0.57380
Si         Si      0.34640   0.58830   0.07380
Si         Si      0.34640   0.58830   0.42620
Si         Si      0.65360   0.41170   0.92620
Si         Si      0.25580   0.41690   0.17320
Si         Si      0.74420   0.58310   0.67320
Si         Si      0.74420   0.58310   0.82680
Si         Si      0.25580   0.41690   0.32680
Si         Si      0.26990   0.44820   0.55470
Si         Si      0.73010   0.55180   0.05470
Si         Si      0.73010   0.55180   0.44530
Si         Si      0.26990   0.44820   0.94530
Si         Si      0.00500   0.42030   0.17340
Si         Si      0.99500   0.57970   0.67340
Si         Si      0.99500   0.57970   0.82660
Si         Si      0.00500   0.42030   0.32660
Si         Si      0.64990   0.07140   0.17360
Si         Si      0.35010   0.92860   0.67360
Si         Si      0.35010   0.92860   0.82640
Si         Si      0.64990   0.07140   0.32640
Si         Si      0.40590   0.08520   0.17380
Si         Si      0.59410   0.91480   0.67380
Si         Si      0.59410   0.91480   0.82620
Si         Si      0.40590   0.08520   0.32620
Si         Si      0.79350   0.27260   0.53420
Si         Si      0.20650   0.72740   0.03420
Si         Si      0.20650   0.72740   0.46580
Si         Si      0.79350   0.27260   0.96580
Si         Si      0.41200   0.30120   0.53300
Si         Si      0.58800   0.69880   0.03300
Si         Si      0.58800   0.69880   0.46700
Si         Si      0.41200   0.30120   0.96700
Si         Si      0.01270   0.43040   0.56150
Si         Si      0.98730   0.56960   0.06150
Si         Si      0.98730   0.56960   0.43850
Si         Si      0.01270   0.43040   0.93850
Si         Si      0.65090   0.06390   0.55820
Si         Si      0.34910   0.93610   0.05820
Si         Si      0.34910   0.93610   0.44180
Si         Si      0.65090   0.06390   0.94180
Si         Si      0.63530   0.40670   0.17480
Si         Si      0.36470   0.59330   0.67480
Si         Si      0.36470   0.59330   0.82520
Si         Si      0.63530   0.40670   0.32520
O          O       0.68680   0.47590   0.64110
O          O       0.31320   0.52410   0.14110
O          O       0.31320   0.52410   0.35890
O          O       0.68680   0.47590   0.85890
O          O       0.50310   0.35650   0.16790
O          O       0.49690   0.64350   0.66790
O          O       0.49690   0.64350   0.83210
O          O       0.50310   0.35650   0.33210
O          O       0.66130   0.44770   0.25000
O          O       0.33870   0.55230   0.75000
O          O       0.69930   0.32340   0.16140
O          O       0.30070   0.67660   0.66140
O          O       0.30070   0.67660   0.83860
O          O       0.69930   0.32340   0.33860
O          O       0.36900   0.17780   0.14400
O          O       0.63100   0.82220   0.64400
O          O       0.63100   0.82220   0.85600
O          O       0.36900   0.17780   0.35600
O          O       0.44100   0.30290   0.04530
O          O       0.55900   0.69710   0.54530
O          O       0.55900   0.69710   0.95470
O          O       0.44100   0.30290   0.45470
O          O       0.29520   0.33420   0.13160
O          O       0.70480   0.66580   0.63160
O          O       0.70480   0.66580   0.86840
O          O       0.29520   0.33420   0.36840
O          O       0.75200   0.15660   0.14260
O          O       0.24800   0.84340   0.64260
O          O       0.24800   0.84340   0.85740
O          O       0.75200   0.15660   0.35740
O          O       0.90920   0.32640   0.14610
O          O       0.09080   0.67360   0.64610
O          O       0.09080   0.67360   0.85390
O          O       0.90920   0.32640   0.35390
O          O       0.77320   0.28560   0.04420
O          O       0.22680   0.71440   0.54420
O          O       0.22680   0.71440   0.95580
O          O       0.77320   0.28560   0.45580
O          O       0.67510   0.49560   0.12170
O          O       0.32490   0.50440   0.62170
O          O       0.32490   0.50440   0.87830
O          O       0.67510   0.49560   0.37830
O          O       0.71340   0.32360   0.57550
O          O       0.28660   0.67640   0.07550
O          O       0.28660   0.67640   0.42450
O          O       0.71340   0.32360   0.92450
O          O       0.69340   0.48010   0.50900
O          O       0.30660   0.51990   0.00900
O          O       0.30660   0.51990   0.49100
O          O       0.69340   0.48010   0.99100
O          O       0.52050   0.36500   0.57270
O          O       0.47950   0.63500   0.07270
O          O       0.47950   0.63500   0.42730
O          O       0.52050   0.36500   0.92730
O          O       0.29340   0.41530   0.25000
O          O       0.70660   0.58470   0.75000
O          O       0.12250   0.39430   0.16890
O          O       0.87750   0.60570   0.66890
O          O       0.87750   0.60570   0.83110
O          O       0.12250   0.39430   0.33110
O          O       0.31090   0.34980   0.54480
O          O       0.68910   0.65020   0.04480
O          O       0.68910   0.65020   0.45520
O          O       0.31090   0.34980   0.95520
O          O       0.13620   0.41610   0.56180
O          O       0.86380   0.58390   0.06180
O          O       0.86380   0.58390   0.43820
O          O       0.13620   0.41610   0.93820
O          O       0.97900   0.44070   0.25000
O          O       0.02100   0.55930   0.75000
O          O       0.00900   0.51790   0.13010
O          O       0.99100   0.48210   0.63010
O          O       0.99100   0.48210   0.86990
O          O       0.00900   0.51790   0.36990
O          O       0.53960   0.10960   0.17150
O          O       0.46040   0.89040   0.67150
O          O       0.46040   0.89040   0.82850
O          O       0.53960   0.10960   0.32850
O          O       0.62920   0.97140   0.13010
O          O       0.37080   0.02860   0.63010
O          O       0.37080   0.02860   0.86990
O          O       0.62920   0.97140   0.36990
O          O       0.67680   0.05030   0.25000
O          O       0.32320   0.94970   0.75000
O          O       0.36410   0.06630   0.25000
O          O       0.63590   0.93370   0.75000
O          O       0.35060   0.98750   0.13020
O          O       0.64940   0.01250   0.63020
O          O       0.64940   0.01250   0.86980
O          O       0.35060   0.98750   0.36980
O          O       0.76130   0.15600   0.55210
O          O       0.23870   0.84400   0.05210
O          O       0.23870   0.84400   0.44790
O          O       0.76130   0.15600   0.94790
O          O       0.92150   0.32430   0.55350
O          O       0.07850   0.67570   0.05350
O          O       0.07850   0.67570   0.44650
O          O       0.92150   0.32430   0.94650
O          O       0.37870   0.18820   0.55930
O          O       0.62130   0.81180   0.05930
O          O       0.62130   0.81180   0.44070
O          O       0.37870   0.18820   0.94070
O          O       0.00000   0.50000   0.50000
O          O       1.00000   0.50000   0.00000
O          O       0.65270   0.98460   0.50040
O          O       0.34730   0.01540   0.00040
O          O       0.34730   0.01540   0.49960
O          O       0.65270   0.98460   0.99960
O          O       0.54230   0.10380   0.55100
O          O       0.45770   0.89620   0.05100
O          O       0.45770   0.89620   0.44900
O          O       0.54230   0.10380   0.94900
