data_crystal

_cell_length_a    13.68061
_cell_length_b    13.68061
_cell_length_c    16.70525
_cell_angle_alpha 65.82843
_cell_angle_beta  65.82843
_cell_angle_gamma 60.00000

_space_group_name_Hall 'P 1'
_space_group_name_H-M_alt 'P 1'

loop_
_symmetry_equiv_pos_as_xyz
 'x,y,z'

loop_
_atom_site_label
_atom_site_type_symbol
_atom_site_fract_x
_atom_site_fract_y
_atom_site_fract_z
O          O       0.96666   0.47753   0.33367
O          O       0.47753   0.22214   0.33367
O          O       0.22214   0.96666   0.33367
O          O       0.22214   0.47753   0.33367
O          O       0.47753   0.96666   0.33367
O          O       0.96666   0.22214   0.33367
O          O       0.03334   0.52247   0.66633
O          O       0.52247   0.77786   0.66633
O          O       0.77786   0.03334   0.66633
O          O       0.77786   0.52247   0.66633
O          O       0.52247   0.03334   0.66633
O          O       0.03334   0.77786   0.66633
O          O       0.02431   0.38761   0.20047
O          O       0.38761   0.38761   0.20047
O          O       0.38761   0.02431   0.20047
O          O       0.97569   0.61239   0.79953
O          O       0.61239   0.61239   0.79953
O          O       0.61239   0.97569   0.79953
O          O       0.16707   0.45585   0.21001
O          O       0.45585   0.16707   0.21001
O          O       0.16707   0.16707   0.21001
O          O       0.83293   0.54415   0.78999
O          O       0.54415   0.83293   0.78999
O          O       0.83293   0.83293   0.78999
O          O       0.96959   0.61129   0.16735
O          O       0.61129   0.25177   0.16735
O          O       0.25177   0.96959   0.16735
O          O       0.25177   0.61129   0.16735
O          O       0.61129   0.96959   0.16735
O          O       0.96959   0.25177   0.16735
O          O       0.03041   0.38871   0.83265
O          O       0.38871   0.74823   0.83265
O          O       0.74823   0.03041   0.83265
O          O       0.74823   0.38871   0.83265
O          O       0.38871   0.03041   0.83265
O          O       0.03041   0.74823   0.83265
O          O       0.08233   0.37660   0.45874
O          O       0.37660   0.08233   0.45874
O          O       0.08233   0.08233   0.45874
O          O       0.91767   0.62340   0.54126
O          O       0.62340   0.91767   0.54126
O          O       0.91767   0.91767   0.54126
O          O       0.85538   0.50000   0.50000
O          O       0.50000   0.14461   0.50000
O          O       0.14461   0.85538   0.50000
O          O       0.14461   0.50000   0.50000
O          O       0.50000   0.85538   0.50000
O          O       0.85538   0.14461   0.50000
O          O       0.93758   0.29782   0.46678
O          O       0.29782   0.29782   0.46678
O          O       0.29782   0.93758   0.46678
O          O       0.06242   0.70218   0.53322
O          O       0.70218   0.70218   0.53322
O          O       0.70218   0.06242   0.53322
O          O       0.74204   0.25796   1.00000
O          O       0.25796   1.00000   0.00000
O          O       0.00000   0.74204   0.00000
O          O       1.00000   0.25796   0.00000
O          O       0.25796   0.74204   1.00000
O          O       0.74204   1.00000   0.00000
O          O       0.80208   0.16493   0.86806
O          O       0.16493   0.16493   0.86806
O          O       0.16493   0.80208   0.86806
O          O       0.19792   0.83507   0.13194
O          O       0.83507   0.83507   0.13194
O          O       0.83507   0.19792   0.13194
O          O       0.94417   0.23358   0.87808
O          O       0.23358   0.94417   0.87808
O          O       0.94417   0.94417   0.87808
O          O       0.05583   0.76642   0.12192
O          O       0.76642   0.05583   0.12192
O          O       0.05583   0.05583   0.12192
Si         Si      0.03207   0.48294   0.22795
Si         Si      0.48294   0.25704   0.22795
Si         Si      0.25704   0.03207   0.22795
Si         Si      0.25704   0.48294   0.22795
Si         Si      0.48294   0.03207   0.22795
Si         Si      0.03207   0.25704   0.22795
Si         Si      0.96793   0.51706   0.77205
Si         Si      0.51706   0.74296   0.77205
Si         Si      0.74296   0.96793   0.77205
Si         Si      0.74296   0.51706   0.77205
Si         Si      0.51706   0.96793   0.77205
Si         Si      0.96793   0.74296   0.77205
Si         Si      0.96085   0.41307   0.43954
Si         Si      0.41307   0.18654   0.43954
Si         Si      0.18654   0.96085   0.43954
Si         Si      0.18654   0.41307   0.43954
Si         Si      0.41307   0.96085   0.43954
Si         Si      0.96085   0.18654   0.43954
Si         Si      0.03915   0.58693   0.56046
Si         Si      0.58693   0.81346   0.56046
Si         Si      0.81346   0.03915   0.56046
Si         Si      0.81346   0.58693   0.56046
Si         Si      0.58693   0.03915   0.56046
Si         Si      0.03915   0.81346   0.56046
Si         Si      0.80935   0.26112   0.89482
Si         Si      0.26112   0.03471   0.89482
Si         Si      0.03471   0.80935   0.89482
Si         Si      0.03471   0.26112   0.89482
Si         Si      0.26112   0.80935   0.89482
Si         Si      0.80935   0.03471   0.89482
Si         Si      0.19065   0.73888   0.10518
Si         Si      0.73888   0.96529   0.10518
Si         Si      0.96529   0.19065   0.10518
Si         Si      0.96529   0.73888   0.10518
Si         Si      0.73888   0.19065   0.10518
Si         Si      0.19065   0.96529   0.10518
