data_crystal

_cell_length_a    10.32900
_cell_length_b    10.32900
_cell_length_c    18.66990
_cell_angle_alpha 106.05868
_cell_angle_beta  106.05868
_cell_angle_gamma 90.00000

_space_group_name_Hall 'P 1'
_space_group_name_H-M_alt 'P 1'

loop_
_symmetry_equiv_pos_as_xyz
 'x,y,z'

loop_
_atom_site_label
_atom_site_type_symbol
_atom_site_fract_x
_atom_site_fract_y
_atom_site_fract_z
O          O       0.31590   0.39860   0.29720
O          O       0.39860   0.31590   0.79720
O          O       0.98130   0.39860   0.29720
O          O       0.39860   0.98130   0.79720
O          O       0.68410   0.60140   0.70280
O          O       0.60140   0.68410   0.20280
O          O       0.01870   0.60140   0.70280
O          O       0.60140   0.01870   0.20280
O          O       0.49760   0.24760   0.25000
O          O       0.50240   0.49760   0.75000
O          O       0.75240   0.50240   0.25000
O          O       0.24760   0.75240   0.75000
O          O       0.75240   0.24760   0.25000
O          O       0.24760   0.49760   0.75000
O          O       0.49760   0.50240   0.25000
O          O       0.50240   0.75240   0.75000
O          O       0.30520   0.32440   0.14880
O          O       0.32440   0.30520   0.64880
O          O       0.84360   0.32440   0.14880
O          O       0.32440   0.84360   0.64880
O          O       0.69480   0.67560   0.85120
O          O       0.67560   0.69480   0.35120
O          O       0.15640   0.67560   0.85120
O          O       0.67560   0.15640   0.35120
O          O       0.20650   0.45650   0.41300
O          O       0.45650   0.20650   0.91300
O          O       0.79350   0.54350   0.58700
O          O       0.54350   0.79350   0.08700
O          O       0.43210   0.33550   0.42580
O          O       0.59030   0.43210   0.92580
O          O       0.99370   0.59030   0.42580
O          O       0.33550   0.99370   0.92580
O          O       0.99370   0.33550   0.42580
O          O       0.33550   0.43210   0.92580
O          O       0.43210   0.59030   0.42580
O          O       0.59030   0.99370   0.92580
O          O       0.56790   0.66450   0.57420
O          O       0.40970   0.56790   0.07420
O          O       0.00630   0.40970   0.57420
O          O       0.66450   0.00630   0.07420
O          O       0.00630   0.66450   0.57420
O          O       0.66450   0.56790   0.07420
O          O       0.56790   0.40970   0.57420
O          O       0.40970   0.00630   0.07420
O          O       0.18260   0.86770   0.98140
O          O       0.61370   0.18260   0.48140
O          O       0.79880   0.61370   0.98140
O          O       0.86770   0.79880   0.48140
O          O       0.79880   0.86770   0.98140
O          O       0.86770   0.18260   0.48140
O          O       0.18260   0.61370   0.98140
O          O       0.61370   0.79880   0.48140
O          O       0.81740   0.13230   0.01860
O          O       0.38630   0.81740   0.51860
O          O       0.20120   0.38630   0.01860
O          O       0.13230   0.20120   0.51860
O          O       0.20120   0.13230   0.01860
O          O       0.13230   0.81740   0.51860
O          O       0.81740   0.38630   0.01860
O          O       0.38630   0.20120   0.51860
O          O       0.04240   0.29240   0.08480
O          O       0.29240   0.04240   0.58480
O          O       0.95760   0.70760   0.91520
O          O       0.70760   0.95760   0.41520
Si         Si      0.40420   0.36820   0.23640
Si         Si      0.36820   0.40420   0.73640
Si         Si      0.83220   0.36820   0.23640
Si         Si      0.36820   0.83220   0.73640
Si         Si      0.59580   0.63180   0.76360
Si         Si      0.63180   0.59580   0.26360
Si         Si      0.16780   0.63180   0.76360
Si         Si      0.63180   0.16780   0.26360
Si         Si      0.34650   0.44530   0.39060
Si         Si      0.44530   0.34650   0.89060
Si         Si      0.04410   0.44530   0.39060
Si         Si      0.44530   0.04410   0.89060
Si         Si      0.65350   0.55470   0.60940
Si         Si      0.55470   0.65350   0.10940
Si         Si      0.95590   0.55470   0.60940
Si         Si      0.55470   0.95590   0.10940
Si         Si      0.28240   0.00000   0.00000
Si         Si      0.50000   0.28240   0.50000
Si         Si      0.71760   0.50000   0.00000
Si         Si      0.00000   0.71760   0.50000
Si         Si      0.71760   0.00000   0.00000
Si         Si      0.00000   0.28240   0.50000
Si         Si      0.28240   0.50000   1.00000
Si         Si      0.50000   0.71760   0.50000
Si         Si      0.18690   0.28380   0.06760
Si         Si      0.28380   0.18690   0.56760
Si         Si      0.88070   0.28380   0.06760
Si         Si      0.28380   0.88070   0.56760
Si         Si      0.81310   0.71620   0.93240
Si         Si      0.71620   0.81310   0.43240
Si         Si      0.11930   0.71620   0.93240
Si         Si      0.71620   0.11930   0.43240
