data_crystal

_cell_length_a    8.59739
_cell_length_b    8.59739
_cell_length_c    28.13100
_cell_angle_alpha 90.00000
_cell_angle_beta  90.00000
_cell_angle_gamma 109.88220

_space_group_name_Hall 'P 1'
_space_group_name_H-M_alt 'P 1'

loop_
_symmetry_equiv_pos_as_xyz
 'x,y,z'

loop_
_atom_site_label
_atom_site_type_symbol
_atom_site_fract_x
_atom_site_fract_y
_atom_site_fract_z
O          O       0.74940   0.89460   0.58560
O          O       0.10540   0.25060   0.58560
O          O       0.89460   0.74940   0.08560
O          O       0.25060   0.10540   0.08560
O          O       0.25060   0.10540   0.41440
O          O       0.89460   0.74940   0.41440
O          O       0.10540   0.25060   0.91440
O          O       0.74940   0.89460   0.91440
O          O       0.56040   0.04320   0.62480
O          O       0.95680   0.43960   0.62480
O          O       0.04320   0.56040   0.12480
O          O       0.43960   0.95680   0.12480
O          O       0.43960   0.95680   0.37520
O          O       0.04320   0.56040   0.37520
O          O       0.95680   0.43960   0.87520
O          O       0.56040   0.04320   0.87520
O          O       0.87290   0.12710   0.64970
O          O       0.12710   0.87290   0.14970
O          O       0.12710   0.87290   0.35030
O          O       0.87290   0.12710   0.85030
O          O       0.66210   0.83950   0.67540
O          O       0.16050   0.33790   0.67540
O          O       0.83950   0.66210   0.17540
O          O       0.33790   0.16050   0.17540
O          O       0.33790   0.16050   0.32460
O          O       0.83950   0.66210   0.32460
O          O       0.16050   0.33790   0.82460
O          O       0.66210   0.83950   0.82460
O          O       0.41040   0.23000   0.66440
O          O       0.77000   0.58960   0.66440
O          O       0.23000   0.41040   0.16440
O          O       0.58960   0.77000   0.16440
O          O       0.58960   0.77000   0.33560
O          O       0.23000   0.41040   0.33560
O          O       0.77000   0.58960   0.83560
O          O       0.41040   0.23000   0.83560
O          O       0.32260   0.29000   0.75000
O          O       0.71000   0.67740   0.75000
O          O       0.29000   0.32260   0.25000
O          O       0.67740   0.71000   0.25000
O          O       0.46350   0.53650   0.69160
O          O       0.53650   0.46350   0.19160
O          O       0.53650   0.46350   0.30840
O          O       0.46350   0.53650   0.80840
O          O       0.05340   0.94660   0.55590
O          O       0.94660   0.05340   0.05590
O          O       0.94660   0.05340   0.44410
O          O       0.05340   0.94660   0.94410
O          O       0.35570   0.14390   0.57460
O          O       0.85610   0.64430   0.57460
O          O       0.14390   0.35570   0.07460
O          O       0.64430   0.85610   0.07460
O          O       0.64430   0.85610   0.42540
O          O       0.14390   0.35570   0.42540
O          O       0.85610   0.64430   0.92540
O          O       0.35570   0.14390   0.92540
O          O       0.19970   0.19970   0.50000
O          O       0.80030   0.80030   0.50000
O          O       0.19970   0.19970   0.00000
O          O       0.80030   0.80030   0.00000
O          O       0.64330   0.35670   0.60060
O          O       0.35670   0.64330   0.10060
O          O       0.35670   0.64330   0.39940
O          O       0.64330   0.35670   0.89940
Si         Si      0.71130   0.97590   0.63380
Si         Si      0.02410   0.28870   0.63380
Si         Si      0.97590   0.71130   0.13380
Si         Si      0.28870   0.02410   0.13380
Si         Si      0.28870   0.02410   0.36620
Si         Si      0.97590   0.71130   0.36620
Si         Si      0.02410   0.28870   0.86620
Si         Si      0.71130   0.97590   0.86620
Si         Si      0.33930   0.34850   0.69530
Si         Si      0.65150   0.66070   0.69530
Si         Si      0.34850   0.33930   0.19530
Si         Si      0.66070   0.65150   0.19530
Si         Si      0.66070   0.65150   0.30470
Si         Si      0.34850   0.33930   0.30470
Si         Si      0.65150   0.66070   0.80470
Si         Si      0.33930   0.34850   0.80470
Si         Si      0.17810   0.13490   0.55410
Si         Si      0.86510   0.82190   0.55410
Si         Si      0.13490   0.17810   0.05410
Si         Si      0.82190   0.86510   0.05410
Si         Si      0.82190   0.86510   0.44590
Si         Si      0.13490   0.17810   0.44590
Si         Si      0.86510   0.82190   0.94590
Si         Si      0.17810   0.13490   0.94590
Si         Si      0.80600   0.50720   0.61610
Si         Si      0.49280   0.19400   0.61610
Si         Si      0.50720   0.80600   0.11610
Si         Si      0.19400   0.49280   0.11610
Si         Si      0.19400   0.49280   0.38390
Si         Si      0.50720   0.80600   0.38390
Si         Si      0.49280   0.19400   0.88390
Si         Si      0.80600   0.50720   0.88390
