data_crystal

_cell_length_a    10.27500
_cell_length_b    11.82622
_cell_length_c    11.82622
_cell_angle_alpha 61.45308
_cell_angle_beta  76.92869
_cell_angle_gamma 76.92869

_space_group_name_Hall 'P 1'
_space_group_name_H-M_alt 'P 1'

loop_
_symmetry_equiv_pos_as_xyz
 'x,y,z'

loop_
_atom_site_label
_atom_site_type_symbol
_atom_site_fract_x
_atom_site_fract_y
_atom_site_fract_z
O          O       0.38610   0.45190   0.85030
O          O       0.11390   0.14970   0.54810
O          O       0.61390   0.54810   0.14970
O          O       0.88610   0.85030   0.45190
O          O       0.30940   0.65990   0.88770
O          O       0.19060   0.11230   0.34010
O          O       0.69060   0.34010   0.11230
O          O       0.80940   0.88770   0.65990
O          O       0.17350   0.89490   0.65130
O          O       0.32650   0.34870   0.10510
O          O       0.82650   0.10510   0.34870
O          O       0.67350   0.65130   0.89490
O          O       0.31780   0.99170   0.19930
O          O       0.18220   0.80070   0.00830
O          O       0.68220   0.00830   0.80070
O          O       0.81780   0.19930   0.99170
O          O       0.21890   0.85670   0.44430
O          O       0.28110   0.55570   0.14330
O          O       0.78110   0.14330   0.55570
O          O       0.71890   0.44430   0.85670
O          O       0.05700   0.99840   0.26800
O          O       0.44300   0.73200   0.00160
O          O       0.94300   0.00160   0.73200
O          O       0.55700   0.26800   0.99840
O          O       0.00000   0.00000   0.00000
O          O       0.50000   0.00000   0.00000
O          O       0.83210   0.98330   0.21050
O          O       0.66790   0.78950   0.01670
O          O       0.16790   0.01670   0.78950
O          O       0.33210   0.21050   0.98330
O          O       0.03720   0.73800   0.63940
O          O       0.46280   0.36060   0.26200
O          O       0.96280   0.26200   0.36060
O          O       0.53720   0.63940   0.73800
O          O       0.75000   0.98570   0.01430
O          O       0.25000   0.01430   0.98570
O          O       0.29930   0.67280   0.66300
O          O       0.20070   0.33700   0.32720
O          O       0.70070   0.32720   0.33700
O          O       0.79930   0.66300   0.67280
Si         Si      0.18110   0.78910   0.60010
Si         Si      0.31890   0.39990   0.21090
Si         Si      0.81890   0.21090   0.39990
Si         Si      0.68110   0.60010   0.78910
Si         Si      0.38430   0.60700   0.78360
Si         Si      0.11570   0.21640   0.39300
Si         Si      0.61570   0.39300   0.21640
Si         Si      0.88430   0.78360   0.60700
Si         Si      0.19680   0.98970   0.31350
Si         Si      0.30320   0.68650   0.01030
Si         Si      0.80320   0.01030   0.68650
Si         Si      0.69680   0.31350   0.98970
Si         Si      0.89980   0.98410   0.32030
Si         Si      0.60020   0.67970   0.01590
Si         Si      0.10020   0.01590   0.67970
Si         Si      0.39980   0.32030   0.98410
Si         Si      0.84940   0.04320   0.05460
Si         Si      0.65060   0.94540   0.95680
Si         Si      0.15060   0.95680   0.94540
Si         Si      0.34940   0.05460   0.04320
