data_crystal

_cell_length_a    7.11600
_cell_length_b    9.72600
_cell_length_c    20.43700
_cell_angle_alpha 90.00000
_cell_angle_beta  90.00000
_cell_angle_gamma 90.00000

_space_group_name_Hall 'P 1'
_space_group_name_H-M_alt 'P 1'

loop_
_symmetry_equiv_pos_as_xyz
 'x,y,z'

loop_
_atom_site_label
_atom_site_type_symbol
_atom_site_fract_x
_atom_site_fract_y
_atom_site_fract_z
Si         Si      0.51770   0.16140   0.18840
Si         Si      0.51770   0.16140   0.81160
Si         Si      0.48230   0.66140   0.68840
Si         Si      0.48230   0.66140   0.31160
Si         Si      0.48230   0.83860   0.81160
Si         Si      0.48230   0.83860   0.18840
Si         Si      0.51770   0.33860   0.31160
Si         Si      0.51770   0.33860   0.68840
Si         Si      0.24020   0.14520   0.07370
Si         Si      0.24020   0.14520   0.92630
Si         Si      0.75980   0.64520   0.57370
Si         Si      0.75980   0.64520   0.42630
Si         Si      0.75980   0.85480   0.92630
Si         Si      0.75980   0.85480   0.07370
Si         Si      0.24020   0.35480   0.42630
Si         Si      0.24020   0.35480   0.57370
Si         Si      0.88110   0.11120   0.13070
Si         Si      0.88110   0.11120   0.86930
Si         Si      0.11890   0.61120   0.63070
Si         Si      0.11890   0.61120   0.36930
Si         Si      0.11890   0.88880   0.86930
Si         Si      0.11890   0.88880   0.13070
Si         Si      0.88110   0.38880   0.36930
Si         Si      0.88110   0.38880   0.63070
O          O       0.50000   1.00000   0.20460
O          O       0.50000   1.00000   0.79540
O          O       0.50000   0.50000   0.70460
O          O       0.50000   0.50000   0.29540
O          O       0.60370   0.80030   0.12450
O          O       0.60370   0.80030   0.87550
O          O       0.39630   0.30030   0.62450
O          O       0.39630   0.30030   0.37550
O          O       0.39630   0.19970   0.87550
O          O       0.39630   0.19970   0.12450
O          O       0.60370   0.69970   0.37550
O          O       0.60370   0.69970   0.62450
O          O       0.00000   0.00000   0.17260
O          O       0.00000   0.00000   0.82740
O          O       0.00000   0.50000   0.67260
O          O       0.00000   0.50000   0.32740
O          O       0.73580   0.19660   0.17510
O          O       0.73580   0.19660   0.82490
O          O       0.26420   0.69660   0.67510
O          O       0.26420   0.69660   0.32490
O          O       0.26420   0.80340   0.82490
O          O       0.26420   0.80340   0.17510
O          O       0.73580   0.30340   0.32490
O          O       0.73580   0.30340   0.67510
O          O       0.55500   0.75000   0.25000
O          O       0.55500   0.75000   0.75000
O          O       0.44500   0.25000   0.75000
O          O       0.44500   0.25000   0.25000
O          O       0.96390   0.79600   0.09390
O          O       0.96390   0.79600   0.90610
O          O       0.03610   0.29600   0.59390
O          O       0.03610   0.29600   0.40610
O          O       0.03610   0.20400   0.90610
O          O       0.03610   0.20400   0.09390
O          O       0.96390   0.70400   0.40610
O          O       0.96390   0.70400   0.59390
O          O       0.23280   0.97960   0.07790
O          O       0.23280   0.97960   0.92210
O          O       0.76720   0.47960   0.57790
O          O       0.76720   0.47960   0.42210
O          O       0.76720   0.02040   0.92210
O          O       0.76720   0.02040   0.07790
O          O       0.23280   0.52040   0.42210
O          O       0.23280   0.52040   0.57790
O          O       0.29010   0.19070   1.00000
O          O       0.70990   0.69070   0.50000
O          O       0.70990   0.80930   0.00000
O          O       0.29010   0.30930   0.50000
