data_crystal

_cell_length_a    12.79200
_cell_length_b    17.21000
_cell_length_c    17.21000
_cell_angle_alpha 120.00000
_cell_angle_beta  90.00000
_cell_angle_gamma 90.00000

_space_group_name_Hall 'P 1'
_space_group_name_H-M_alt 'P 1'

loop_
_symmetry_equiv_pos_as_xyz
 'x,y,z'

loop_
_atom_site_label
_atom_site_type_symbol
_atom_site_fract_x
_atom_site_fract_y
_atom_site_fract_z
Si         Si      0.87840   0.51200   0.84590
Si         Si      0.87840   0.33390   0.48800
Si         Si      0.87840   0.15410   0.66610
Si         Si      0.87840   0.48800   0.15410
Si         Si      0.87840   0.66610   0.51200
Si         Si      0.87840   0.84590   0.33390
Si         Si      0.87840   0.66610   0.15410
Si         Si      0.87840   0.84590   0.51200
Si         Si      0.87840   0.48800   0.33390
Si         Si      0.87840   0.33390   0.84590
Si         Si      0.87840   0.15410   0.48800
Si         Si      0.87840   0.51200   0.66610
Si         Si      0.12160   0.48800   0.15410
Si         Si      0.12160   0.66610   0.51200
Si         Si      0.12160   0.84590   0.33390
Si         Si      0.12160   0.51200   0.84590
Si         Si      0.12160   0.33390   0.48800
Si         Si      0.12160   0.15410   0.66610
Si         Si      0.12160   0.33390   0.84590
Si         Si      0.12160   0.15410   0.48800
Si         Si      0.12160   0.51200   0.66610
Si         Si      0.12160   0.66610   0.15410
Si         Si      0.12160   0.84590   0.51200
Si         Si      0.12160   0.48800   0.33390
Si         Si      0.80420   0.69730   0.69730
Si         Si      0.80420   0.00000   0.30270
Si         Si      0.80420   0.30270   1.00000
Si         Si      0.80420   0.30270   0.30270
Si         Si      0.80420   0.00000   0.69730
Si         Si      0.80420   0.69730   1.00000
Si         Si      0.19580   0.30270   0.30270
Si         Si      0.19580   0.00000   0.69730
Si         Si      0.19580   0.69730   1.00000
Si         Si      0.19580   0.69730   0.69730
Si         Si      0.19580   0.00000   0.30270
Si         Si      0.19580   0.30270   1.00000
Si         Si      0.62140   0.81770   0.81770
Si         Si      0.62140   0.00000   0.18230
Si         Si      0.62140   0.18230   1.00000
Si         Si      0.62140   0.18230   0.18230
Si         Si      0.62140   0.00000   0.81770
Si         Si      0.62140   0.81770   0.00000
Si         Si      0.37860   0.18230   0.18230
Si         Si      0.37860   0.00000   0.81770
Si         Si      0.37860   0.81770   0.00000
Si         Si      0.37860   0.81770   0.81770
Si         Si      0.37860   0.00000   0.18230
Si         Si      0.37860   0.18230   1.00000
Si         Si      0.00000   0.81400   0.81400
Si         Si      1.00000   0.00000   0.18600
Si         Si      0.00000   0.18600   0.00000
Si         Si      0.00000   0.18600   0.18600
Si         Si      1.00000   0.00000   0.81400
Si         Si      0.00000   0.81400   1.00000
O          O       0.86060   0.48690   0.74350
O          O       0.86060   0.25660   0.51310
O          O       0.86060   0.25650   0.74340
O          O       0.86060   0.51310   0.25650
O          O       0.86060   0.74340   0.48690
O          O       0.86060   0.74350   0.25660
O          O       0.13940   0.51310   0.25650
O          O       0.13940   0.74340   0.48690
O          O       0.13940   0.74350   0.25660
O          O       0.13940   0.48690   0.74350
O          O       0.13940   0.25660   0.51310
O          O       0.13940   0.25650   0.74340
O          O       0.81090   0.59960   0.91170
O          O       0.81090   0.31210   0.40040
O          O       0.81090   0.08830   0.68790
O          O       0.81090   0.40040   0.08830
O          O       0.81090   0.68790   0.59960
O          O       0.81090   0.91170   0.31210
O          O       0.81090   0.68790   0.08830
O          O       0.81090   0.91170   0.59960
O          O       0.81090   0.40040   0.31210
O          O       0.81090   0.31210   0.91170
O          O       0.81090   0.08830   0.40040
O          O       0.81090   0.59960   0.68790
O          O       0.18910   0.40040   0.08830
O          O       0.18910   0.68790   0.59960
O          O       0.18910   0.91170   0.31210
O          O       0.18910   0.59960   0.91170
O          O       0.18910   0.31210   0.40040
O          O       0.18910   0.08830   0.68790
O          O       0.18910   0.31210   0.91170
O          O       0.18910   0.08830   0.40040
O          O       0.18910   0.59960   0.68790
O          O       0.18910   0.68790   0.08830
O          O       0.18910   0.91170   0.59960
O          O       0.18910   0.40040   0.31210
O          O       0.00000   0.53330   0.87190
O          O       0.00000   0.33860   0.46670
O          O       0.00000   0.12810   0.66140
O          O       0.00000   0.46670   0.12810
O          O       1.00000   0.66140   0.53330
O          O       1.00000   0.87190   0.33860
O          O       0.00000   0.66140   0.12810
O          O       1.00000   0.87190   0.53330
O          O       1.00000   0.46670   0.33860
O          O       0.00000   0.33860   0.87190
O          O       0.00000   0.12810   0.46670
O          O       0.00000   0.53330   0.66140
O          O       0.84250   0.42910   0.85820
O          O       0.84250   0.42910   0.57090
O          O       0.84250   0.14180   0.57090
O          O       0.84250   0.57090   0.14180
O          O       0.84250   0.57090   0.42910
O          O       0.84250   0.85820   0.42910
O          O       0.15750   0.57090   0.14180
O          O       0.15750   0.57090   0.42910
O          O       0.15750   0.85820   0.42910
O          O       0.15750   0.42910   0.85820
O          O       0.15750   0.42910   0.57090
O          O       0.15750   0.14180   0.57090
O          O       0.69260   0.74060   0.74060
O          O       0.69260   0.00000   0.25940
O          O       0.69260   0.25940   1.00000
O          O       0.69260   0.25940   0.25940
O          O       0.69260   0.00000   0.74060
O          O       0.69260   0.74060   1.00000
O          O       0.30740   0.25940   0.25940
O          O       0.30740   0.00000   0.74060
O          O       0.30740   0.74060   1.00000
O          O       0.30740   0.74060   0.74060
O          O       0.30740   0.00000   0.25940
O          O       0.30740   0.25940   1.00000
O          O       0.89710   0.76030   0.76030
O          O       0.89710   0.00000   0.23970
O          O       0.89710   0.23970   1.00000
O          O       0.89710   0.23970   0.23970
O          O       0.89710   0.00000   0.76030
O          O       0.89710   0.76030   1.00000
O          O       0.10290   0.23970   0.23970
O          O       0.10290   0.00000   0.76030
O          O       0.10290   0.76030   1.00000
O          O       0.10290   0.76030   0.76030
O          O       0.10290   0.00000   0.23970
O          O       0.10290   0.23970   1.00000
O          O       0.64800   0.91200   0.82400
O          O       0.64800   0.91200   0.08800
O          O       0.64800   0.17600   0.08800
O          O       0.64800   0.08800   0.17600
O          O       0.64800   0.08800   0.91200
O          O       0.64800   0.82400   0.91200
O          O       0.35200   0.08800   0.17600
O          O       0.35200   0.08800   0.91200
O          O       0.35200   0.82400   0.91200
O          O       0.35200   0.91200   0.82400
O          O       0.35200   0.91200   0.08800
O          O       0.35200   0.17600   0.08800
O          O       0.50000   0.79310   0.79310
O          O       0.50000   0.00000   0.20690
O          O       0.50000   0.20690   1.00000
O          O       0.50000   0.20690   0.20690
O          O       0.50000   0.00000   0.79310
O          O       0.50000   0.79310   1.00000
O          O       1.00000   0.91200   0.82400
O          O       0.00000   0.91200   0.08800
O          O       0.00000   0.17600   0.08800
O          O       0.00000   0.08800   0.17600
O          O       0.00000   0.08800   0.91200
O          O       0.00000   0.82400   0.91200
