data_crystal

_cell_length_a    5.25800
_cell_length_b    13.97700
_cell_length_c    22.57900
_cell_angle_alpha 90.00000
_cell_angle_beta  90.00000
_cell_angle_gamma 90.00000

_space_group_name_Hall 'P 1'
_space_group_name_H-M_alt 'P 1'

loop_
_symmetry_equiv_pos_as_xyz
 'x,y,z'

loop_
_atom_site_label
_atom_site_type_symbol
_atom_site_fract_x
_atom_site_fract_y
_atom_site_fract_z
Si         Si      0.25000   0.85630   0.25000
Si         Si      0.75000   0.14370   0.75000
Si         Si      0.75000   0.98890   0.25000
Si         Si      0.25000   0.01110   0.75000
Si         Si      0.25000   0.77270   0.37860
Si         Si      0.25000   0.77270   0.12140
Si         Si      0.75000   0.22730   0.62140
Si         Si      0.75000   0.22730   0.87860
Si         Si      0.25000   0.59430   0.45040
Si         Si      0.25000   0.59430   0.04960
Si         Si      0.75000   0.40570   0.54960
Si         Si      0.75000   0.40570   0.95040
Si         Si      0.25000   0.92130   0.62200
Si         Si      0.25000   0.92130   0.87800
Si         Si      0.75000   0.07870   0.37800
Si         Si      0.75000   0.07870   0.12200
Si         Si      0.75000   0.61600   0.52930
Si         Si      0.75000   0.61600   0.97070
Si         Si      0.25000   0.38400   0.47070
Si         Si      0.25000   0.38400   0.02930
Si         Si      0.75000   0.82220   0.57240
Si         Si      0.75000   0.82220   0.92760
Si         Si      0.25000   0.17780   0.42760
Si         Si      0.25000   0.17780   0.07240
Si         Si      0.75000   0.87010   0.43420
Si         Si      0.75000   0.87010   0.06580
Si         Si      0.25000   0.12990   0.56580
Si         Si      0.25000   0.12990   0.93420
O          O       0.25000   0.78960   0.19190
O          O       0.25000   0.78960   0.30810
O          O       0.75000   0.21040   0.80810
O          O       0.75000   0.21040   0.69190
O          O       1.00000   0.92260   0.25000
O          O       0.50000   0.92260   0.25000
O          O       0.00000   0.07740   0.75000
O          O       0.50000   0.07740   0.75000
O          O       0.75000   0.05520   0.30830
O          O       0.75000   0.05520   0.19170
O          O       0.25000   0.94480   0.69170
O          O       0.25000   0.94480   0.80830
O          O       0.25000   0.65930   0.39150
O          O       0.25000   0.65930   0.10850
O          O       0.75000   0.34070   0.60850
O          O       0.75000   0.34070   0.89150
O          O       1.00000   0.81970   0.40750
O          O       0.50000   0.81970   0.40750
O          O       0.00000   0.81970   0.09250
O          O       0.50000   0.81970   0.09250
O          O       1.00000   0.18030   0.59250
O          O       0.50000   0.18030   0.59250
O          O       0.00000   0.18030   0.90750
O          O       0.50000   0.18030   0.90750
O          O       0.25000   0.48240   0.43360
O          O       0.25000   0.48240   0.06640
O          O       0.75000   0.51760   0.56640
O          O       0.75000   0.51760   0.93360
O          O       0.00010   0.61990   0.48830
O          O       0.49990   0.61990   0.48830
O          O       0.00010   0.61990   0.01170
O          O       0.49990   0.61990   0.01170
O          O       0.99990   0.38010   0.51170
O          O       0.50010   0.38010   0.51170
O          O       0.99990   0.38010   0.98830
O          O       0.50010   0.38010   0.98830
O          O       0.25000   0.01850   0.58390
O          O       0.25000   0.01850   0.91610
O          O       0.75000   0.98150   0.41610
O          O       0.75000   0.98150   0.08390
O          O       0.50000   0.85990   0.60620
O          O       0.00000   0.85990   0.60620
O          O       0.50000   0.85990   0.89380
O          O       0.00000   0.85990   0.89380
O          O       0.50000   0.14010   0.39380
O          O       0.00000   0.14010   0.39380
O          O       0.50000   0.14010   0.10620
O          O       0.00000   0.14010   0.10620
O          O       0.75000   0.70700   0.57300
O          O       0.75000   0.70700   0.92700
O          O       0.25000   0.29300   0.42700
O          O       0.25000   0.29300   0.07300
O          O       0.75000   0.86070   0.50520
O          O       0.75000   0.86070   0.99480
O          O       0.25000   0.13930   0.49480
O          O       0.25000   0.13930   0.00520
