data_crystal

_cell_length_a    7.47700
_cell_length_b    11.51461
_cell_length_c    11.51461
_cell_angle_alpha 104.46780
_cell_angle_beta  95.49106
_cell_angle_gamma 95.49106

_space_group_name_Hall 'P 1'
_space_group_name_H-M_alt 'P 1'

loop_
_symmetry_equiv_pos_as_xyz
 'x,y,z'

loop_
_atom_site_label
_atom_site_type_symbol
_atom_site_fract_x
_atom_site_fract_y
_atom_site_fract_z
O          O       0.38780   0.35400   0.35400
O          O       0.61220   0.64600   0.64600
O          O       0.66710   0.37980   0.23560
O          O       0.33290   0.76440   0.62020
O          O       0.33290   0.62020   0.76440
O          O       0.66710   0.23560   0.37980
O          O       0.69620   0.47110   0.47110
O          O       0.30380   0.52890   0.52890
O          O       0.10240   0.31880   0.46320
O          O       0.89760   0.53680   0.68120
O          O       0.89760   0.68120   0.53680
O          O       0.10240   0.46320   0.31880
O          O       0.62280   0.99970   0.34930
O          O       0.37720   0.65070   0.00030
O          O       0.37720   0.00030   0.65070
O          O       0.62280   0.34930   0.99970
O          O       0.75760   0.81580   0.40580
O          O       0.24240   0.59420   0.18420
O          O       0.24240   0.18420   0.59420
O          O       0.75760   0.40580   0.81580
O          O       0.42510   0.85460   0.44360
O          O       0.57490   0.55640   0.14540
O          O       0.57490   0.14540   0.55640
O          O       0.42510   0.44360   0.85460
O          O       0.50000   0.77820   0.22180
O          O       0.50000   0.22180   0.77820
O          O       0.09810   0.86740   0.50620
O          O       0.90190   0.49380   0.13260
O          O       0.90190   0.13260   0.49380
O          O       0.09810   0.50620   0.86740
O          O       1.00000   0.67660   0.32340
O          O       1.00000   0.32340   0.67660
Si         Si      0.93730   0.76030   0.44290
Si         Si      0.06270   0.55710   0.23970
Si         Si      0.06270   0.23970   0.55710
Si         Si      0.93730   0.44290   0.76030
Si         Si      0.57710   0.86160   0.35480
Si         Si      0.42290   0.64520   0.13840
Si         Si      0.42290   0.13840   0.64520
Si         Si      0.57710   0.35480   0.86160
Si         Si      0.30830   0.87160   0.55560
Si         Si      0.69170   0.44440   0.12840
Si         Si      0.69170   0.12840   0.44440
Si         Si      0.30830   0.55560   0.87160
Si         Si      0.60460   0.36000   0.36000
Si         Si      0.39540   0.64000   0.64000
Si         Si      0.22460   0.41620   0.41620
Si         Si      0.77540   0.58380   0.58380
