data_crystal

_cell_length_a    11.17156
_cell_length_b    11.17156
_cell_length_c    11.22741
_cell_angle_alpha 111.30697
_cell_angle_beta  111.30697
_cell_angle_gamma 105.64270

_space_group_name_Hall 'P 1'
_space_group_name_H-M_alt 'P 1'

loop_
_symmetry_equiv_pos_as_xyz
 'x,y,z'

loop_
_atom_site_label
_atom_site_type_symbol
_atom_site_fract_x
_atom_site_fract_y
_atom_site_fract_z
O          O       0.66540   0.95520   0.62060
O          O       0.95520   0.66540   0.62060
O          O       0.33460   0.04480   0.37940
O          O       0.04480   0.33460   0.37940
O          O       0.52280   0.67040   0.46080
O          O       0.79040   0.93800   0.46080
O          O       0.67040   0.52280   0.46080
O          O       0.93800   0.79040   0.46080
O          O       0.47720   0.32960   0.53920
O          O       0.20960   0.06200   0.53920
O          O       0.32960   0.47720   0.53920
O          O       0.06200   0.20960   0.53920
O          O       0.42280   0.81840   0.60360
O          O       0.78520   0.18080   0.60360
O          O       0.81840   0.42280   0.60360
O          O       0.18080   0.78520   0.60360
O          O       0.57720   0.18160   0.39640
O          O       0.21480   0.81920   0.39640
O          O       0.18160   0.57720   0.39640
O          O       0.81920   0.21480   0.39640
O          O       0.65680   0.80440   0.75340
O          O       0.94900   0.09660   0.75340
O          O       0.80440   0.65680   0.75340
O          O       0.09660   0.94900   0.75340
O          O       0.34320   0.19560   0.24660
O          O       0.05100   0.90340   0.24660
O          O       0.19560   0.34320   0.24660
O          O       0.90340   0.05100   0.24660
O          O       0.57630   0.57630   0.78020
O          O       0.20390   0.20390   0.78020
O          O       0.42370   0.42370   0.21980
O          O       0.79610   0.79610   0.21980
O          O       0.81540   0.81540   1.00000
O          O       0.18460   0.18460   0.00000
O          O       0.65310   0.65310   0.30620
O          O       0.34690   0.34690   0.69380
Si         Si      0.56700   0.81200   0.60940
Si         Si      0.79740   0.04240   0.60940
Si         Si      0.81200   0.56700   0.60940
Si         Si      0.04240   0.79740   0.60940
Si         Si      0.43300   0.18800   0.39060
Si         Si      0.20260   0.95760   0.39060
Si         Si      0.18800   0.43300   0.39060
Si         Si      0.95760   0.20260   0.39060
Si         Si      0.71320   0.71320   0.82200
Si         Si      0.10880   0.10880   0.82200
Si         Si      0.28680   0.28680   0.17800
Si         Si      0.89120   0.89120   0.17800
Si         Si      0.56760   0.56760   0.36200
Si         Si      0.79440   0.79440   0.36200
Si         Si      0.43240   0.43240   0.63800
Si         Si      0.20560   0.20560   0.63800
Si         Si      0.25000   0.75000   0.50000
Si         Si      0.75000   0.25000   0.50000
