data_crystal

_cell_length_a    13.05000
_cell_length_b    13.57300
_cell_length_c    21.85300
_cell_angle_alpha 90.00000
_cell_angle_beta  90.00000
_cell_angle_gamma 102.90500

_space_group_name_Hall 'P 1'
_space_group_name_H-M_alt 'P 1'

loop_
_symmetry_equiv_pos_as_xyz
 'x,y,z'

loop_
_atom_site_label
_atom_site_type_symbol
_atom_site_fract_x
_atom_site_fract_y
_atom_site_fract_z
Si         Si      0.40380   0.79190   0.83630
Si         Si      0.09620   0.70810   0.33630
Si         Si      0.59620   0.20810   0.16370
Si         Si      0.90380   0.29190   0.66370
Si         Si      0.35370   0.55240   0.83310
Si         Si      0.14630   0.94760   0.33310
Si         Si      0.64630   0.44760   0.16690
Si         Si      0.85370   0.05240   0.66690
Si         Si      0.30490   0.04690   0.43010
Si         Si      0.19510   0.45310   0.93010
Si         Si      0.69510   0.95310   0.56990
Si         Si      0.80490   0.54690   0.06990
Si         Si      0.34490   0.88470   0.50720
Si         Si      0.15510   0.61530   0.00720
Si         Si      0.65510   0.11530   0.49280
Si         Si      0.84490   0.38470   0.99280
Si         Si      0.34840   0.78630   0.69750
Si         Si      0.15160   0.71370   0.19750
Si         Si      0.65160   0.21370   0.30250
Si         Si      0.84840   0.28630   0.80250
Si         Si      0.30520   0.55380   0.69370
Si         Si      0.19480   0.94620   0.19370
Si         Si      0.69480   0.44620   0.30630
Si         Si      0.80520   0.05380   0.80630
Si         Si      0.50020   0.79810   0.58880
Si         Si      0.99980   0.70190   0.08880
Si         Si      0.49980   0.20190   0.41120
Si         Si      0.00020   0.29810   0.91120
Si         Si      0.53060   0.47520   0.90390
Si         Si      0.96940   0.02480   0.40390
Si         Si      0.46940   0.52480   0.09610
Si         Si      0.03060   0.97520   0.59610
Si         Si      0.23700   0.67590   0.44730
Si         Si      0.26300   0.82410   0.94730
Si         Si      0.76300   0.32410   0.55270
Si         Si      0.73700   0.17590   0.05270
Si         Si      0.62650   0.61910   0.99740
Si         Si      0.87350   0.88090   0.49740
Si         Si      0.37350   0.38090   0.00260
Si         Si      0.12650   0.11910   0.50260
Si         Si      0.84950   0.64870   0.50580
Si         Si      0.65050   0.85130   0.00580
Si         Si      0.15050   0.35130   0.49420
Si         Si      0.34950   0.14870   0.99420
Si         Si      0.19070   0.85040   0.61410
Si         Si      0.30930   0.64960   0.11410
Si         Si      0.80930   0.14960   0.38590
Si         Si      0.69070   0.35040   0.88590
Si         Si      0.45460   0.56330   0.58200
Si         Si      0.04540   0.93670   0.08200
Si         Si      0.54540   0.43670   0.41800
Si         Si      0.95460   0.06330   0.91800
Si         Si      0.10960   0.44530   0.61880
Si         Si      0.39040   0.05470   0.11880
Si         Si      0.89040   0.55470   0.38120
Si         Si      0.60960   0.94530   0.88120
Si         Si      0.65540   0.50030   0.54030
Si         Si      0.84460   0.99970   0.04030
Si         Si      0.34460   0.49970   0.45970
Si         Si      0.15540   0.00030   0.95970
Si         Si      0.07770   0.64000   0.55680
Si         Si      0.42230   0.86000   0.05680
Si         Si      0.92230   0.36000   0.44320
Si         Si      0.57770   0.14000   0.94320
O          O       0.37850   0.98450   0.46540
O          O       0.12150   0.51550   0.96540
O          O       0.62150   0.01550   0.53460
O          O       0.87850   0.48450   0.03460
O          O       0.39680   0.67230   0.84120
O          O       0.10320   0.82770   0.34120
O          O       0.60320   0.32770   0.15880
O          O       0.89680   0.17230   0.65880
O          O       0.13200   0.73610   0.59780
O          O       0.36800   0.76390   0.09780
O          O       0.86800   0.26390   0.40220
O          O       0.63200   0.23610   0.90220
O          O       0.33250   0.52370   0.76200
O          O       0.16750   0.97630   0.26200
O          O       0.66750   0.47630   0.23800
O          O       0.83250   0.02370   0.73800
O          O       0.43960   0.49410   0.85880
O          O       0.06040   0.00590   0.35880
O          O       0.56040   0.50590   0.14120
O          O       0.93960   0.99410   0.64120
O          O       0.26960   0.85170   0.67090
O          O       0.23040   0.64830   0.17090
O          O       0.73040   0.14830   0.32910
O          O       0.76960   0.35170   0.82910
O          O       0.25780   0.90150   0.55590
O          O       0.24220   0.59850   0.05590
O          O       0.74220   0.09850   0.44410
O          O       0.75780   0.40150   0.94410
O          O       0.37820   0.81920   0.76710
O          O       0.12180   0.68080   0.26710
O          O       0.62180   0.18080   0.23290
O          O       0.87820   0.31920   0.73290
O          O       0.56320   0.52570   0.58230
O          O       0.93680   0.97430   0.08230
O          O       0.43680   0.47430   0.41770
O          O       0.06320   0.02570   0.91770
O          O       0.06110   0.53930   0.59810
O          O       0.43890   0.96070   0.09810
O          O       0.93890   0.46070   0.40190
O          O       0.56110   0.03930   0.90190
O          O       0.60560   0.41500   0.86810
O          O       0.89440   0.08500   0.36810
O          O       0.39440   0.58500   0.13190
O          O       0.10560   0.91500   0.63190
O          O       0.44600   0.86320   0.54230
O          O       0.05400   0.63680   0.04230
O          O       0.55400   0.13680   0.45770
O          O       0.94600   0.36320   0.95770
O          O       0.37490   0.15530   0.40980
O          O       0.12510   0.34470   0.90980
O          O       0.62510   0.84470   0.59020
O          O       0.87490   0.65530   0.09020
O          O       0.24580   0.51580   0.87080
O          O       0.25420   0.98420   0.37080
O          O       0.75420   0.48420   0.12920
O          O       0.74580   0.01580   0.62920
O          O       0.47780   0.68220   0.56660
O          O       0.02220   0.81780   0.06660
O          O       0.52220   0.31780   0.43340
O          O       0.97780   0.18220   0.93340
O          O       0.59890   0.58180   0.92820
O          O       0.90110   0.91820   0.42820
O          O       0.40110   0.41820   0.07180
O          O       0.09890   0.08180   0.57180
O          O       0.29500   0.79010   0.46420
O          O       0.20500   0.70990   0.96420
O          O       0.70500   0.20990   0.53580
O          O       0.79500   0.29010   0.03580
O          O       0.32020   0.82400   0.88200
O          O       0.17980   0.67600   0.38200
O          O       0.67980   0.17600   0.11800
O          O       0.82020   0.32400   0.61800
O          O       0.51950   0.85450   0.85470
O          O       0.98050   0.64550   0.35470
O          O       0.48050   0.14550   0.14530
O          O       0.01950   0.35450   0.64530
O          O       0.39930   0.54390   0.64810
O          O       0.10070   0.95610   0.14810
O          O       0.60070   0.45610   0.35190
O          O       0.89930   0.04390   0.85190
O          O       0.47860   0.40870   0.96160
O          O       0.02140   0.09130   0.46160
O          O       0.52140   0.59130   0.03840
O          O       0.97860   0.90870   0.53840
O          O       0.76230   0.58450   0.55120
O          O       0.73770   0.91550   0.05120
O          O       0.23770   0.41550   0.44880
O          O       0.26230   0.08450   0.94880
O          O       0.21280   0.06280   0.47540
O          O       0.28720   0.43720   0.97540
O          O       0.78720   0.93720   0.52460
O          O       0.71280   0.56280   0.02460
O          O       0.32410   0.60880   0.44190
O          O       0.17590   0.89120   0.94190
O          O       0.67590   0.39120   0.55810
O          O       0.82410   0.10880   0.05810
O          O       0.83700   0.59470   0.43980
O          O       0.66300   0.90530   0.93980
O          O       0.16300   0.40530   0.56020
O          O       0.33700   0.09470   0.06020
O          O       0.29080   0.66850   0.69440
O          O       0.20920   0.83150   0.19440
O          O       0.70920   0.33150   0.30560
O          O       0.79080   0.16850   0.80560
O          O       0.45350   0.80490   0.65650
O          O       0.04650   0.69510   0.15650
O          O       0.54650   0.19510   0.34350
O          O       0.95350   0.30490   0.84350
O          O       0.15240   0.63080   0.49940
O          O       0.34760   0.86920   0.99940
O          O       0.84760   0.36920   0.50060
O          O       0.65240   0.13080   0.00060
O          O       0.96550   0.65430   0.53250
O          O       0.53450   0.84570   0.03250
O          O       0.03450   0.34570   0.46750
O          O       0.46550   0.15430   0.96750
O          O       0.67160   0.73950   0.99870
O          O       0.82840   0.76050   0.49870
O          O       0.32840   0.26050   0.00130
O          O       0.17160   0.23950   0.50130
O          O       0.19740   0.48060   0.67100
O          O       0.30260   0.01940   0.17100
O          O       0.80260   0.51940   0.32900
O          O       0.69740   0.98060   0.82900
O          O       0.37790   0.50090   0.53070
O          O       0.12210   0.99910   0.03070
O          O       0.62210   0.49910   0.46930
O          O       0.87790   0.00090   0.96930
