data_crystal

_cell_length_a    11.88700
_cell_length_b    11.88700
_cell_length_c    29.91500
_cell_angle_alpha 90.00000
_cell_angle_beta  90.00000
_cell_angle_gamma 120.00000

_space_group_name_Hall 'P 1'
_space_group_name_H-M_alt 'P 1'

loop_
_symmetry_equiv_pos_as_xyz
 'x,y,z'

loop_
_atom_site_label
_atom_site_type_symbol
_atom_site_fract_x
_atom_site_fract_y
_atom_site_fract_z
Si         Si      0.30830   0.68310   0.96620
Si         Si      0.37480   0.69170   0.63287
Si         Si      0.31690   0.62520   0.29953
Si         Si      0.69170   0.31690   0.46620
Si         Si      0.62520   0.30830   0.13287
Si         Si      0.68310   0.37480   0.79953
Si         Si      0.62520   0.31690   0.70047
Si         Si      0.68310   0.30830   0.03380
Si         Si      0.69170   0.37480   0.36713
Si         Si      0.37480   0.68310   0.20047
Si         Si      0.31690   0.69170   0.53380
Si         Si      0.30830   0.62520   0.86713
Si         Si      0.46820   0.88200   0.03330
Si         Si      0.41380   0.53180   0.69997
Si         Si      0.11800   0.58620   0.36663
Si         Si      0.53180   0.11800   0.53330
Si         Si      0.58620   0.46820   0.19997
Si         Si      0.88200   0.41380   0.86663
Si         Si      0.58620   0.11800   0.63337
Si         Si      0.88200   0.46820   0.96670
Si         Si      0.53180   0.41380   0.30003
Si         Si      0.41380   0.88200   0.13337
Si         Si      0.11800   0.53180   0.46670
Si         Si      0.46820   0.58620   0.80003
Si         Si      0.70030   0.09450   0.14920
Si         Si      0.39420   0.29970   0.81587
Si         Si      0.90550   0.60580   0.48253
Si         Si      0.29970   0.90550   0.64920
Si         Si      0.60580   0.70030   0.31587
Si         Si      0.09450   0.39420   0.98253
Si         Si      0.60580   0.90550   0.51747
Si         Si      0.09450   0.70030   0.85080
Si         Si      0.29970   0.39420   0.18413
Si         Si      0.39420   0.09450   0.01747
Si         Si      0.90550   0.29970   0.35080
Si         Si      0.70030   0.60580   0.68413
Si         Si      0.75680   0.09480   0.04940
Si         Si      0.33800   0.24320   0.71607
Si         Si      0.90520   0.66200   0.38273
Si         Si      0.24320   0.90520   0.54940
Si         Si      0.66200   0.75680   0.21607
Si         Si      0.09480   0.33800   0.88273
Si         Si      0.66200   0.90520   0.61727
Si         Si      0.09480   0.75680   0.95060
Si         Si      0.24320   0.33800   0.28393
Si         Si      0.33800   0.09480   0.11727
Si         Si      0.90520   0.24320   0.45060
Si         Si      0.75680   0.66200   0.78393
Si         Si      0.03300   0.15510   0.03340
Si         Si      0.12210   0.96700   0.70007
Si         Si      0.84490   0.87790   0.36673
Si         Si      0.96700   0.84490   0.53340
Si         Si      0.87790   0.03300   0.20007
Si         Si      0.15510   0.12210   0.86673
Si         Si      0.87790   0.84490   0.63327
Si         Si      0.15510   0.03300   0.96660
Si         Si      0.96700   0.12210   0.29993
Si         Si      0.12210   0.15510   0.13327
Si         Si      0.84490   0.96700   0.46660
Si         Si      0.03300   0.87790   0.79993
O          O       0.08720   0.08720   0.00000
O          O       0.00000   0.91280   0.66667
O          O       0.91280   0.00000   0.33333
O          O       0.91280   0.91280   0.50000
O          O       0.00000   0.08720   0.16667
O          O       0.08720   1.00000   0.83333
O          O       0.66720   0.23980   0.66630
O          O       0.57260   0.33280   0.33297
O          O       0.76020   0.42740   0.99963
O          O       0.33280   0.76020   0.16630
O          O       0.42740   0.66720   0.83297
O          O       0.23980   0.57260   0.49963
O          O       0.42740   0.76020   0.00037
O          O       0.23980   0.66720   0.33370
O          O       0.33280   0.57260   0.66703
O          O       0.57260   0.23980   0.50037
O          O       0.76020   0.33280   0.83370
O          O       0.66720   0.42740   0.16703
O          O       0.87840   0.09130   0.02720
O          O       0.21290   0.12160   0.69387
O          O       0.90870   0.78710   0.36053
O          O       0.12160   0.90870   0.52720
O          O       0.78710   0.87840   0.19387
O          O       0.09130   0.21290   0.86053
O          O       0.78710   0.90870   0.63947
O          O       0.09130   0.87840   0.97280
O          O       0.12160   0.21290   0.30613
O          O       0.21290   0.09130   0.13947
O          O       0.90870   0.12160   0.47280
O          O       0.87840   0.78710   0.80613
O          O       0.06560   0.13120   0.08330
O          O       0.06560   0.93440   0.74997
O          O       0.86880   0.93440   0.41663
O          O       0.93440   0.86880   0.58330
O          O       0.93440   0.06560   0.24997
O          O       0.13120   0.06560   0.91663
O          O       0.10020   0.30830   0.02320
O          O       0.20810   0.89980   0.68987
O          O       0.69170   0.79190   0.35653
O          O       0.89980   0.69170   0.52320
O          O       0.79190   0.10020   0.18987
O          O       0.30830   0.20810   0.85653
O          O       0.79190   0.69170   0.64347
O          O       0.30830   0.10020   0.97680
O          O       0.89980   0.20810   0.31013
O          O       0.20810   0.30830   0.14347
O          O       0.69170   0.89980   0.47680
O          O       0.10020   0.79190   0.81013
O          O       0.35980   0.67990   0.91670
O          O       0.32010   0.64020   0.58337
O          O       0.32010   0.67990   0.25003
O          O       0.64020   0.32010   0.41670
O          O       0.67990   0.35980   0.08337
O          O       0.67990   0.32010   0.75003
O          O       0.62420   0.96880   0.03360
O          O       0.34460   0.37580   0.70027
O          O       0.03120   0.65540   0.36693
O          O       0.37580   0.03120   0.53360
O          O       0.65540   0.62420   0.20027
O          O       0.96880   0.34460   0.86693
O          O       0.65540   0.03120   0.63307
O          O       0.96880   0.62420   0.96640
O          O       0.37580   0.34460   0.29973
O          O       0.34460   0.96880   0.13307
O          O       0.03120   0.37580   0.46640
O          O       0.62420   0.65540   0.79973
O          O       0.22030   0.53720   0.98460
O          O       0.31690   0.77970   0.65127
O          O       0.46280   0.68310   0.31793
O          O       0.77970   0.46280   0.48460
O          O       0.68310   0.22030   0.15127
O          O       0.53720   0.31690   0.81793
O          O       0.68310   0.46280   0.68207
O          O       0.53720   0.22030   0.01540
O          O       0.77970   0.31690   0.34873
O          O       0.31690   0.53720   0.18207
O          O       0.46280   0.77970   0.51540
O          O       0.22030   0.68310   0.84873
O          O       0.22480   0.75580   0.96520
O          O       0.53100   0.77520   0.63187
O          O       0.24420   0.46900   0.29853
O          O       0.77520   0.24420   0.46520
O          O       0.46900   0.22480   0.13187
O          O       0.75580   0.53100   0.79853
O          O       0.46900   0.24420   0.70147
O          O       0.75580   0.22480   0.03480
O          O       0.77520   0.53100   0.36813
O          O       0.53100   0.75580   0.20147
O          O       0.24420   0.77520   0.53480
O          O       0.22480   0.46900   0.86813
O          O       0.76890   0.09350   0.10290
O          O       0.32460   0.23110   0.76957
O          O       0.90650   0.67540   0.43623
O          O       0.23110   0.90650   0.60290
O          O       0.67540   0.76890   0.26957
O          O       0.09350   0.32460   0.93623
O          O       0.67540   0.90650   0.56377
O          O       0.09350   0.76890   0.89710
O          O       0.23110   0.32460   0.23043
O          O       0.32460   0.09350   0.06377
O          O       0.90650   0.23110   0.39710
O          O       0.76890   0.67540   0.73043
O          O       0.40630   0.96570   0.01420
O          O       0.55940   0.59370   0.68087
O          O       0.03430   0.44060   0.34753
O          O       0.59370   0.03430   0.51420
O          O       0.44060   0.40630   0.18087
O          O       0.96570   0.55940   0.84753
O          O       0.44060   0.03430   0.65247
O          O       0.96570   0.40630   0.98580
O          O       0.59370   0.55940   0.31913
O          O       0.55940   0.96570   0.15247
O          O       0.03430   0.59370   0.48580
O          O       0.40630   0.44060   0.81913
O          O       0.41630   0.83260   0.08330
O          O       0.41630   0.58370   0.74997
O          O       0.16740   0.58370   0.41663
O          O       0.58370   0.16740   0.58330
O          O       0.58370   0.41630   0.24997
O          O       0.83260   0.41630   0.91663
