data_crystal

_cell_length_a    9.36835
_cell_length_b    9.36835
_cell_length_c    17.75187
_cell_angle_alpha 93.03948
_cell_angle_beta  93.03948
_cell_angle_gamma 91.08246

_space_group_name_Hall 'P 1'
_space_group_name_H-M_alt 'P 1'

loop_
_symmetry_equiv_pos_as_xyz
 'x,y,z'

loop_
_atom_site_label
_atom_site_type_symbol
_atom_site_fract_x
_atom_site_fract_y
_atom_site_fract_z
O          O       0.76023   0.09781   0.87552
O          O       0.09781   0.76023   0.87552
O          O       0.23977   0.90219   0.12448
O          O       0.90219   0.23977   0.12448
O          O       0.74188   0.25812   1.00000
O          O       0.25812   0.74188   1.00000
O          O       0.69391   0.98073   0.00059
O          O       0.98073   0.69391   0.00059
O          O       0.30609   0.01927   0.99941
O          O       0.01927   0.30609   0.99941
O          O       0.50961   0.14581   0.93031
O          O       0.14581   0.50961   0.93031
O          O       0.49039   0.85419   0.06969
O          O       0.85419   0.49039   0.06969
O          O       0.30071   0.01037   0.85065
O          O       0.01037   0.30071   0.85065
O          O       0.69929   0.98963   0.14935
O          O       0.98963   0.69929   0.14935
O          O       0.25196   0.25196   0.92681
O          O       0.74804   0.74804   0.07319
O          O       0.12290   0.88308   0.74783
O          O       0.88308   0.12290   0.74783
O          O       0.87710   0.11692   0.25217
O          O       0.11692   0.87710   0.25217
O          O       0.87322   0.87322   0.80881
O          O       0.12678   0.12678   0.19119
O          O       0.98000   0.63814   0.74967
O          O       0.63814   0.98000   0.74967
O          O       0.02000   0.36186   0.25033
O          O       0.36186   0.02000   0.25033
O          O       0.36592   0.99324   0.70752
O          O       0.99324   0.36592   0.70752
O          O       0.63408   0.00676   0.29248
O          O       0.00676   0.63408   0.29248
O          O       0.16143   0.16143   0.75158
O          O       0.83857   0.83857   0.24842
O          O       0.91744   0.55138   0.60823
O          O       0.55138   0.91744   0.60823
O          O       0.08256   0.44862   0.39177
O          O       0.44862   0.08256   0.39177
O          O       0.18373   0.55013   0.66353
O          O       0.55013   0.18373   0.66353
O          O       0.81627   0.44987   0.33647
O          O       0.44987   0.81627   0.33647
O          O       0.41866   0.41866   0.62912
O          O       0.58134   0.58134   0.37088
O          O       0.23042   0.48220   0.52160
O          O       0.48220   0.23042   0.52160
O          O       0.76958   0.51780   0.47840
O          O       0.51780   0.76958   0.47840
O          O       0.38496   0.68638   0.59588
O          O       0.68638   0.38496   0.59588
O          O       0.61504   0.31362   0.40412
O          O       0.31362   0.61504   0.40412
O          O       0.66366   0.66366   0.59231
O          O       0.33634   0.33634   0.40769
Si         Si      0.67578   0.11978   0.95176
Si         Si      0.11978   0.67578   0.95176
Si         Si      0.32422   0.88022   0.04824
Si         Si      0.88022   0.32422   0.04824
Si         Si      0.34123   0.10691   0.92681
Si         Si      0.10691   0.34123   0.92681
Si         Si      0.65877   0.89309   0.07319
Si         Si      0.89309   0.65877   0.07319
Si         Si      0.01819   0.78825   0.79526
Si         Si      0.78825   0.01819   0.79526
Si         Si      0.98181   0.21175   0.20474
Si         Si      0.21175   0.98181   0.20474
Si         Si      0.23864   0.01180   0.76438
Si         Si      0.01180   0.23864   0.76438
Si         Si      0.76136   0.98820   0.23562
Si         Si      0.98820   0.76136   0.23562
Si         Si      0.01896   0.52640   0.68220
Si         Si      0.52640   0.01896   0.68220
Si         Si      0.98104   0.47360   0.31780
Si         Si      0.47360   0.98104   0.31780
Si         Si      0.30441   0.53455   0.60252
Si         Si      0.53455   0.30441   0.60252
Si         Si      0.69559   0.46545   0.39748
Si         Si      0.46545   0.69559   0.39748
Si         Si      0.75931   0.52917   0.56875
Si         Si      0.52917   0.75931   0.56875
Si         Si      0.24069   0.47083   0.43125
Si         Si      0.47083   0.24069   0.43125
