data_crystal

_cell_length_a    7.51400
_cell_length_b    11.86872
_cell_length_c    11.86872
_cell_angle_alpha 105.30049
_cell_angle_beta  90.00000
_cell_angle_gamma 90.00000

_space_group_name_Hall 'P 1'
_space_group_name_H-M_alt 'P 1'

loop_
_symmetry_equiv_pos_as_xyz
 'x,y,z'

loop_
_atom_site_label
_atom_site_type_symbol
_atom_site_fract_x
_atom_site_fract_y
_atom_site_fract_z
O          O       0.24640   0.21450   0.21450
O          O       0.24640   0.78550   0.78550
O          O       0.75360   0.78550   0.78550
O          O       0.75360   0.21450   0.21450
O          O       0.24740   0.19410   0.98830
O          O       0.24740   0.98830   0.19410
O          O       0.24740   0.01170   0.80590
O          O       0.24740   0.80590   0.01170
O          O       0.75260   0.80590   0.01170
O          O       0.75260   0.01170   0.80590
O          O       0.75260   0.98830   0.19410
O          O       0.75260   0.19410   0.98830
O          O       0.17510   0.22010   0.77990
O          O       0.17510   0.77990   0.22010
O          O       0.82490   0.77990   0.22010
O          O       0.82490   0.22010   0.77990
O          O       0.00000   0.50000   0.00000
O          O       1.00000   0.00000   0.50000
O          O       1.00000   0.40970   0.77250
O          O       1.00000   0.77250   0.40970
O          O       1.00000   0.22750   0.59030
O          O       1.00000   0.59030   0.22750
O          O       0.17510   0.39650   0.13610
O          O       0.17510   0.13610   0.39650
O          O       0.17510   0.86390   0.60350
O          O       0.17510   0.60350   0.86390
O          O       0.82490   0.60350   0.86390
O          O       0.82490   0.86390   0.60350
O          O       0.82490   0.13610   0.39650
O          O       0.82490   0.39650   0.13610
O          O       0.50000   0.16990   0.83010
O          O       0.50000   0.83010   0.16990
O          O       0.50000   0.31380   0.12140
O          O       0.50000   0.12140   0.31380
O          O       0.50000   0.87860   0.68620
O          O       0.50000   0.68620   0.87860
Si         Si      0.29250   0.27930   0.11490
Si         Si      0.29250   0.11490   0.27930
Si         Si      0.29250   0.88510   0.72070
Si         Si      0.29250   0.72070   0.88510
Si         Si      0.70750   0.72070   0.88510
Si         Si      0.70750   0.88510   0.72070
Si         Si      0.70750   0.11490   0.27930
Si         Si      0.70750   0.27930   0.11490
Si         Si      0.00000   0.47070   0.12470
Si         Si      0.00000   0.12470   0.47070
Si         Si      1.00000   0.87530   0.52930
Si         Si      1.00000   0.52930   0.87530
Si         Si      0.29250   0.14880   0.85120
Si         Si      0.29250   0.85120   0.14880
Si         Si      0.70750   0.85120   0.14880
Si         Si      0.70750   0.14880   0.85120
Si         Si      1.00000   0.26920   0.73080
Si         Si      1.00000   0.73080   0.26920
