data_crystal

_cell_length_a    9.80700
_cell_length_b    12.79952
_cell_length_c    20.24200
_cell_angle_alpha 90.00000
_cell_angle_beta  90.00000
_cell_angle_gamma 112.52586

_space_group_name_Hall 'P 1'
_space_group_name_H-M_alt 'P 1'

loop_
_symmetry_equiv_pos_as_xyz
 'x,y,z'

loop_
_atom_site_label
_atom_site_type_symbol
_atom_site_fract_x
_atom_site_fract_y
_atom_site_fract_z
O          O       0.99490   0.72140   0.34500
O          O       0.72650   0.72140   0.34500
O          O       0.27350   0.27860   0.84500
O          O       0.00510   0.27860   0.84500
O          O       0.00510   0.27860   0.65500
O          O       0.27350   0.27860   0.65500
O          O       0.72650   0.72140   0.15500
O          O       0.99490   0.72140   0.15500
O          O       0.17080   0.60980   0.34300
O          O       0.43900   0.60980   0.34300
O          O       0.56100   0.39020   0.84300
O          O       0.82920   0.39020   0.84300
O          O       0.82920   0.39020   0.65700
O          O       0.56100   0.39020   0.65700
O          O       0.43900   0.60980   0.15700
O          O       0.17080   0.60980   0.15700
O          O       0.28210   0.83240   0.34300
O          O       0.55030   0.83240   0.34300
O          O       0.44970   0.16760   0.84300
O          O       0.71790   0.16760   0.84300
O          O       0.71790   0.16760   0.65700
O          O       0.44970   0.16760   0.65700
O          O       0.55030   0.83240   0.15700
O          O       0.28210   0.83240   0.15700
O          O       0.15390   0.72160   0.44970
O          O       0.56770   0.72160   0.44970
O          O       0.43230   0.27840   0.94970
O          O       0.84610   0.27840   0.94970
O          O       0.84610   0.27840   0.55030
O          O       0.43230   0.27840   0.55030
O          O       0.56770   0.72160   0.05030
O          O       0.15390   0.72160   0.05030
O          O       0.27310   0.27820   0.44560
O          O       0.00510   0.27820   0.44560
O          O       0.99490   0.72180   0.94560
O          O       0.72690   0.72180   0.94560
O          O       0.72690   0.72180   0.55440
O          O       0.99490   0.72180   0.55440
O          O       0.00510   0.27820   0.05440
O          O       0.27310   0.27820   0.05440
O          O       0.44880   0.16600   0.44360
O          O       0.71720   0.16600   0.44360
O          O       0.28280   0.83400   0.94360
O          O       0.55120   0.83400   0.94360
O          O       0.55120   0.83400   0.55640
O          O       0.28280   0.83400   0.55640
O          O       0.71720   0.16600   0.05640
O          O       0.44880   0.16600   0.05640
O          O       0.56000   0.38820   0.44300
O          O       0.82820   0.38820   0.44300
O          O       0.17180   0.61180   0.94300
O          O       0.44000   0.61180   0.94300
O          O       0.44000   0.61180   0.55700
O          O       0.17180   0.61180   0.55700
O          O       0.82820   0.38820   0.05700
O          O       0.56000   0.38820   0.05700
O          O       0.47020   0.94040   0.25000
O          O       0.52980   0.05960   0.75000
O          O       0.50970   0.01940   0.37080
O          O       0.49030   0.98060   0.87080
O          O       0.49030   0.98060   0.62920
O          O       0.50970   0.01940   0.12920
O          O       0.50000   0.00000   0.50000
O          O       0.50000   0.00000   0.00000
O          O       0.76700   0.53400   0.37000
O          O       0.23300   0.46600   0.87000
O          O       0.23300   0.46600   0.63000
O          O       0.76700   0.53400   0.13000
O          O       0.77710   0.55420   0.49950
O          O       0.22290   0.44580   0.99950
O          O       0.22290   0.44580   0.50050
O          O       0.77710   0.55420   0.00050
O          O       0.25080   0.50160   0.25000
O          O       0.74920   0.49840   0.75000
O          O       0.21160   0.42320   0.37120
O          O       0.78840   0.57680   0.87120
O          O       0.78840   0.57680   0.62880
O          O       0.21160   0.42320   0.12880
O          O       0.80860   0.61720   0.25000
O          O       0.19140   0.38280   0.75000
Si         Si      0.15050   0.72120   0.37030
Si         Si      0.57070   0.72120   0.37030
Si         Si      0.42930   0.27880   0.87030
Si         Si      0.84950   0.27880   0.87030
Si         Si      0.84950   0.27880   0.62970
Si         Si      0.42930   0.27880   0.62970
Si         Si      0.57070   0.72120   0.12970
Si         Si      0.15050   0.72120   0.12970
Si         Si      0.42850   0.27740   0.47080
Si         Si      0.84890   0.27740   0.47080
Si         Si      0.15110   0.72260   0.97080
Si         Si      0.57150   0.72260   0.97080
Si         Si      0.57150   0.72260   0.52920
Si         Si      0.15110   0.72260   0.52920
Si         Si      0.84890   0.27740   0.02920
Si         Si      0.42850   0.27740   0.02920
Si         Si      0.45290   0.90580   0.32690
Si         Si      0.54710   0.09420   0.82690
Si         Si      0.54710   0.09420   0.67310
Si         Si      0.45290   0.90580   0.17310
Si         Si      0.54400   0.08800   0.43950
Si         Si      0.45600   0.91200   0.93950
Si         Si      0.45600   0.91200   0.56050
Si         Si      0.54400   0.08800   0.06050
Si         Si      0.73320   0.46640   0.43900
Si         Si      0.26680   0.53360   0.93900
Si         Si      0.26680   0.53360   0.56100
Si         Si      0.73320   0.46640   0.06100
Si         Si      0.26820   0.53640   0.32690
Si         Si      0.73180   0.46360   0.82690
Si         Si      0.73180   0.46360   0.67310
Si         Si      0.26820   0.53640   0.17310
Si         Si      0.17830   0.35660   0.44050
Si         Si      0.82170   0.64340   0.94050
Si         Si      0.82170   0.64340   0.55950
Si         Si      0.17830   0.35660   0.05950
Si         Si      0.82450   0.64900   0.32730
Si         Si      0.17550   0.35100   0.82730
Si         Si      0.17550   0.35100   0.67270
Si         Si      0.82450   0.64900   0.17270
