data_crystal

_cell_length_a    6.48200
_cell_length_b    7.00000
_cell_length_c    14.00000
_cell_angle_alpha 90.00000
_cell_angle_beta  90.00000
_cell_angle_gamma 90.00000

_space_group_name_Hall 'P 1'
_space_group_name_H-M_alt 'P 1'

loop_
_symmetry_equiv_pos_as_xyz
 'x,y,z'

loop_
_atom_site_label
_atom_site_type_symbol
_atom_site_fract_x
_atom_site_fract_y
_atom_site_fract_z
Si         Si      0.49990   0.00000   0.88390
Si         Si      0.49990   0.00000   0.61610
Si         Si      0.50010   0.00000   0.11610
Si         Si      0.50010   0.00000   0.38390
Si         Si      0.73660   0.73210   0.75000
Si         Si      0.73660   0.26790   0.75000
Si         Si      0.26340   0.26790   0.25000
Si         Si      0.26340   0.73210   0.25000
Si         Si      0.11820   0.00000   0.75000
Si         Si      0.88180   0.00000   0.25000
O          O       0.50000   0.00000   0.00000
O          O       0.50000   0.00000   0.50000
O          O       0.61820   0.81020   0.84490
O          O       0.61820   0.81020   0.65510
O          O       0.61820   0.18980   0.84490
O          O       0.61820   0.18980   0.65510
O          O       0.38180   0.18980   0.15510
O          O       0.38180   0.18980   0.34490
O          O       0.38180   0.81020   0.15510
O          O       0.38180   0.81020   0.34490
O          O       0.26320   0.00000   0.84500
O          O       0.26320   0.00000   0.65500
O          O       0.73680   0.00000   0.15500
O          O       0.73680   0.00000   0.34500
O          O       0.73650   0.50000   0.75000
O          O       0.26350   0.50000   0.25000
O          O       0.97320   0.81010   0.75000
O          O       0.97320   0.18990   0.75000
O          O       0.02680   0.18990   0.25000
O          O       0.02680   0.81010   0.25000
