data_crystal

_cell_length_a    12.27900
_cell_length_b    12.27900
_cell_length_c    30.86900
_cell_angle_alpha 90.00000
_cell_angle_beta  90.00000
_cell_angle_gamma 120.00000

_space_group_name_Hall 'P 1'
_space_group_name_H-M_alt 'P 1'

loop_
_symmetry_equiv_pos_as_xyz
 'x,y,z'

loop_
_atom_site_label
_atom_site_type_symbol
_atom_site_fract_x
_atom_site_fract_y
_atom_site_fract_z
Si         Si      0.25600   0.25610   0.32790
Si         Si      0.00010   0.74400   0.32790
Si         Si      0.74390   0.99990   0.32790
Si         Si      0.00010   0.25610   0.32790
Si         Si      0.74390   0.74400   0.32790
Si         Si      0.25600   0.99990   0.32790
Si         Si      0.74400   0.74390   0.67210
Si         Si      0.99990   0.25600   0.67210
Si         Si      0.25610   0.00010   0.67210
Si         Si      0.99990   0.74390   0.67210
Si         Si      0.25610   0.25600   0.67210
Si         Si      0.74400   0.00010   0.67210
Si         Si      0.58820   0.66470   0.24520
Si         Si      0.07650   0.41180   0.24520
Si         Si      0.33530   0.92350   0.24520
Si         Si      0.07650   0.66470   0.24520
Si         Si      0.33530   0.41180   0.24520
Si         Si      0.58820   0.92350   0.24520
Si         Si      0.41180   0.33530   0.75480
Si         Si      0.92350   0.58820   0.75480
Si         Si      0.66470   0.07650   0.75480
Si         Si      0.92350   0.33530   0.75480
Si         Si      0.66470   0.58820   0.75480
Si         Si      0.41180   0.07650   0.75480
Si         Si      0.74660   0.00270   0.16930
Si         Si      0.25610   0.25340   0.16930
Si         Si      0.99730   0.74390   0.16930
Si         Si      0.25610   0.00270   0.16930
Si         Si      0.99730   0.25340   0.16930
Si         Si      0.74660   0.74390   0.16930
Si         Si      0.25340   0.99730   0.83070
Si         Si      0.74390   0.74660   0.83070
Si         Si      0.00270   0.25610   0.83070
Si         Si      0.74390   0.99730   0.83070
Si         Si      0.00270   0.74660   0.83070
Si         Si      0.25340   0.25610   0.83070
Si         Si      0.59020   0.67030   0.08750
Si         Si      0.08010   0.40980   0.08750
Si         Si      0.32970   0.91990   0.08750
Si         Si      0.08010   0.67030   0.08750
Si         Si      0.32970   0.40980   0.08750
Si         Si      0.59020   0.91990   0.08750
Si         Si      0.40980   0.32970   0.91250
Si         Si      0.91990   0.59020   0.91250
Si         Si      0.67030   0.08010   0.91250
Si         Si      0.91990   0.32970   0.91250
Si         Si      0.67030   0.59020   0.91250
Si         Si      0.40980   0.08010   0.91250
Si         Si      0.58760   0.66990   0.58730
Si         Si      0.08230   0.41240   0.58730
Si         Si      0.33010   0.91770   0.58730
Si         Si      0.08230   0.66990   0.58730
Si         Si      0.33010   0.41240   0.58730
Si         Si      0.58760   0.91770   0.58730
Si         Si      0.41240   0.33010   0.41270
Si         Si      0.91770   0.58760   0.41270
Si         Si      0.66990   0.08230   0.41270
Si         Si      0.91770   0.33010   0.41270
Si         Si      0.66990   0.58760   0.41270
Si         Si      0.41240   0.08230   0.41270
Si         Si      0.25330   0.25330   0.50000
Si         Si      0.00000   0.74670   0.50000
Si         Si      0.74670   1.00000   0.50000
Si         Si      0.00000   0.25330   0.50000
Si         Si      0.74670   0.74670   0.50000
Si         Si      0.25330   1.00000   0.50000
Si         Si      0.74910   0.00000   1.00000
Si         Si      0.25090   0.25090   1.00000
Si         Si      0.00000   0.74910   0.00000
Si         Si      0.25090   0.00000   0.00000
Si         Si      0.00000   0.25090   0.00000
Si         Si      0.74910   0.74910   1.00000
O          O       0.30980   0.30540   0.37580
O          O       0.99560   0.69020   0.37580
O          O       0.69460   0.00440   0.37580
O          O       0.99560   0.30540   0.37580
O          O       0.69460   0.69020   0.37580
O          O       0.30980   0.00440   0.37580
O          O       0.69020   0.69460   0.62420
O          O       0.00440   0.30980   0.62420
O          O       0.30540   0.99560   0.62420
O          O       0.00440   0.69460   0.62420
O          O       0.30540   0.30980   0.62420
O          O       0.69020   0.99560   0.62420
O          O       0.11250   0.22500   0.32470
O          O       0.11250   0.88750   0.32470
O          O       0.77500   0.88750   0.32470
O          O       0.88750   0.77500   0.67530
O          O       0.88750   0.11250   0.67530
O          O       0.22500   0.11250   0.67530
O          O       0.34100   0.36240   0.29300
O          O       0.02140   0.65900   0.29300
O          O       0.63760   0.97860   0.29300
O          O       0.02140   0.36240   0.29300
O          O       0.63760   0.65900   0.29300
O          O       0.34100   0.97860   0.29300
O          O       0.65900   0.63760   0.70700
O          O       0.97860   0.34100   0.70700
O          O       0.36240   0.02140   0.70700
O          O       0.97860   0.63760   0.70700
O          O       0.36240   0.34100   0.70700
O          O       0.65900   0.02140   0.70700
O          O       0.26230   0.13120   0.31730
O          O       0.86890   0.73770   0.31730
O          O       0.86880   0.13110   0.31730
O          O       0.73770   0.86880   0.68270
O          O       0.13110   0.26230   0.68270
O          O       0.13120   0.86890   0.68270
O          O       0.59880   0.79940   0.23820
O          O       0.20060   0.40120   0.23820
O          O       0.20060   0.79940   0.23820
O          O       0.40120   0.20060   0.76180
O          O       0.79940   0.59880   0.76180
O          O       0.79940   0.20060   0.76180
O          O       0.44380   0.55620   0.23960
O          O       0.11240   0.55620   0.23960
O          O       0.44380   0.88760   0.23960
O          O       0.55620   0.44380   0.76040
O          O       0.88760   0.44380   0.76040
O          O       0.55620   0.11240   0.76040
O          O       0.67330   0.64910   0.20870
O          O       0.97580   0.32670   0.20870
O          O       0.35090   0.02420   0.20870
O          O       0.97580   0.64910   0.20870
O          O       0.35090   0.32670   0.20870
O          O       0.67330   0.02420   0.20870
O          O       0.32670   0.35090   0.79130
O          O       0.02420   0.67330   0.79130
O          O       0.64910   0.97580   0.79130
O          O       0.02420   0.35090   0.79130
O          O       0.64910   0.67330   0.79130
O          O       0.32670   0.97580   0.79130
O          O       0.72920   0.86460   0.17440
O          O       0.13540   0.27080   0.17440
O          O       0.13540   0.86460   0.17440
O          O       0.27080   0.13540   0.82560
O          O       0.86460   0.72920   0.82560
O          O       0.86460   0.13540   0.82560
O          O       0.89380   0.10630   0.17120
O          O       0.21250   0.10620   0.17120
O          O       0.89370   0.78750   0.17120
O          O       0.10620   0.89370   0.82880
O          O       0.78750   0.89380   0.82880
O          O       0.10630   0.21250   0.82880
O          O       0.68830   0.01120   0.12350
O          O       0.32290   0.31170   0.12350
O          O       0.98880   0.67710   0.12350
O          O       0.32290   0.01120   0.12350
O          O       0.98880   0.31170   0.12350
O          O       0.68830   0.67710   0.12350
O          O       0.31170   0.98880   0.87650
O          O       0.67710   0.68830   0.87650
O          O       0.01120   0.32290   0.87650
O          O       0.67710   0.98880   0.87650
O          O       0.01120   0.68830   0.87650
O          O       0.31170   0.32290   0.87650
O          O       0.55350   0.77680   0.09720
O          O       0.22330   0.44650   0.09720
O          O       0.22320   0.77670   0.09720
O          O       0.44650   0.22320   0.90280
O          O       0.77670   0.55350   0.90280
O          O       0.77680   0.22330   0.90280
O          O       0.46650   0.53360   0.08920
O          O       0.06710   0.53350   0.08920
O          O       0.46640   0.93290   0.08920
O          O       0.53350   0.46640   0.91080
O          O       0.93290   0.46650   0.91080
O          O       0.53360   0.06710   0.91080
O          O       0.65310   0.69330   0.04020
O          O       0.04020   0.34690   0.04020
O          O       0.30670   0.95980   0.04020
O          O       0.04020   0.69330   0.04020
O          O       0.30670   0.34690   0.04020
O          O       0.65310   0.95980   0.04020
O          O       0.34690   0.30670   0.95980
O          O       0.95980   0.65310   0.95980
O          O       0.69330   0.04020   0.95980
O          O       0.95980   0.30670   0.95980
O          O       0.69330   0.65310   0.95980
O          O       0.34690   0.04020   0.95980
O          O       0.76630   0.88310   0.98610
O          O       0.11680   0.23370   0.98610
O          O       0.11690   0.88320   0.98610
O          O       0.23370   0.11690   0.01390
O          O       0.88320   0.76630   0.01390
O          O       0.88310   0.11680   0.01390
O          O       0.54020   0.77010   0.59270
O          O       0.22990   0.45980   0.59270
O          O       0.22990   0.77010   0.59270
O          O       0.45980   0.22990   0.40730
O          O       0.77010   0.54020   0.40730
O          O       0.77010   0.22990   0.40730
O          O       0.47100   0.52910   0.59190
O          O       0.05810   0.52900   0.59190
O          O       0.47090   0.94190   0.59190
O          O       0.52900   0.47090   0.40810
O          O       0.94190   0.47100   0.40810
O          O       0.52910   0.05810   0.40810
O          O       0.65250   0.68820   0.54050
O          O       0.03570   0.34750   0.54050
O          O       0.31180   0.96430   0.54050
O          O       0.03570   0.68820   0.54050
O          O       0.31180   0.34750   0.54050
O          O       0.65250   0.96430   0.54050
O          O       0.34750   0.31180   0.45950
O          O       0.96430   0.65250   0.45950
O          O       0.68820   0.03570   0.45950
O          O       0.96430   0.31180   0.45950
O          O       0.68820   0.65250   0.45950
O          O       0.34750   0.03570   0.45950
O          O       0.11840   0.23680   0.48770
O          O       0.11840   0.88160   0.48770
O          O       0.76320   0.88160   0.48770
O          O       0.88160   0.76320   0.51230
O          O       0.88160   0.11840   0.51230
O          O       0.23680   0.11840   0.51230
