data_crystal

_cell_length_a    5.25600
_cell_length_b    11.37198
_cell_length_c    11.37198
_cell_angle_alpha 103.34371
_cell_angle_beta  90.00000
_cell_angle_gamma 90.00000

_space_group_name_Hall 'P 1'
_space_group_name_H-M_alt 'P 1'

loop_
_symmetry_equiv_pos_as_xyz
 'x,y,z'

loop_
_atom_site_label
_atom_site_type_symbol
_atom_site_fract_x
_atom_site_fract_y
_atom_site_fract_z
O          O       0.00000   0.72760   0.72760
O          O       0.00000   0.27240   0.27240
O          O       0.50000   0.72760   0.72760
O          O       0.50000   0.27240   0.27240
O          O       0.75000   0.52240   0.66380
O          O       0.75000   0.33620   0.47760
O          O       0.25000   0.66380   0.52240
O          O       0.25000   0.47760   0.33620
O          O       0.75000   0.64420   0.89080
O          O       0.75000   0.10920   0.35580
O          O       0.25000   0.89080   0.64420
O          O       0.25000   0.35580   0.10920
O          O       0.75000   0.68600   0.12780
O          O       0.75000   0.87220   0.31400
O          O       0.25000   0.12780   0.68600
O          O       0.25000   0.31400   0.87220
O          O       0.00000   0.50000   0.00000
O          O       0.00000   0.00000   0.50000
O          O       0.50000   0.00000   0.50000
O          O       0.50000   0.50000   0.00000
O          O       0.50000   0.67490   0.32510
O          O       0.00000   0.32510   0.67490
O          O       0.50000   0.32510   0.67490
O          O       0.00000   0.67490   0.32510
Si         Si      0.75000   0.65520   0.75220
Si         Si      0.75000   0.24780   0.34480
Si         Si      0.25000   0.75220   0.65520
Si         Si      0.25000   0.34480   0.24780
Si         Si      0.75000   0.58230   0.00450
Si         Si      0.75000   0.99550   0.41770
Si         Si      0.25000   0.00450   0.58230
Si         Si      0.25000   0.41770   0.99550
Si         Si      0.75000   0.72690   0.27310
Si         Si      0.25000   0.27310   0.72690
Si         Si      0.75000   0.37710   0.62290
Si         Si      0.25000   0.62290   0.37710
