data_crystal

_cell_length_a    21.73788
_cell_length_b    21.73788
_cell_length_c    21.73788
_cell_angle_alpha 60.00000
_cell_angle_beta  60.00000
_cell_angle_gamma 60.00000

_space_group_name_Hall 'P 1'
_space_group_name_H-M_alt 'P 1'

loop_
_symmetry_equiv_pos_as_xyz
 'x,y,z'

loop_
_atom_site_label
_atom_site_type_symbol
_atom_site_fract_x
_atom_site_fract_y
_atom_site_fract_z
O          O       0.01350   0.84830   0.68490
O          O       0.84830   0.68490   0.01350
O          O       0.68490   0.01350   0.84830
O          O       0.54670   0.31510   0.15170
O          O       0.54670   0.98650   0.31510
O          O       0.54670   0.15170   0.98650
O          O       0.15170   0.98650   0.54670
O          O       0.31510   0.15170   0.54670
O          O       0.98650   0.31510   0.54670
O          O       0.68490   0.45330   0.01350
O          O       0.01350   0.45330   0.84830
O          O       0.84830   0.45330   0.68490
O          O       0.01350   0.68490   0.84830
O          O       0.84830   0.01350   0.68490
O          O       0.68490   0.84830   0.01350
O          O       0.54670   0.15170   0.31510
O          O       0.54670   0.31510   0.98650
O          O       0.54670   0.98650   0.15170
O          O       0.15170   0.54670   0.98650
O          O       0.31510   0.54670   0.15170
O          O       0.98650   0.54670   0.31510
O          O       0.68490   0.01350   0.45330
O          O       0.01350   0.84830   0.45330
O          O       0.84830   0.68490   0.45330
O          O       0.98650   0.15170   0.31510
O          O       0.15170   0.31510   0.98650
O          O       0.31510   0.98650   0.15170
O          O       0.45330   0.68490   0.84830
O          O       0.45330   0.01350   0.68490
O          O       0.45330   0.84830   0.01350
O          O       0.84830   0.01350   0.45330
O          O       0.68490   0.84830   0.45330
O          O       0.01350   0.68490   0.45330
O          O       0.31510   0.54670   0.98650
O          O       0.98650   0.54670   0.15170
O          O       0.15170   0.54670   0.31510
O          O       0.98650   0.31510   0.15170
O          O       0.15170   0.98650   0.31510
O          O       0.31510   0.15170   0.98650
O          O       0.45330   0.84830   0.68490
O          O       0.45330   0.68490   0.01350
O          O       0.45330   0.01350   0.84830
O          O       0.84830   0.45330   0.01350
O          O       0.68490   0.45330   0.84830
O          O       0.01350   0.45330   0.68490
O          O       0.31510   0.98650   0.54670
O          O       0.98650   0.15170   0.54670
O          O       0.15170   0.31510   0.54670
O          O       0.70290   0.87470   0.87470
O          O       0.87470   0.87470   0.70290
O          O       0.87470   0.70290   0.87470
O          O       0.45230   0.12530   0.12530
O          O       0.45230   0.29710   0.12530
O          O       0.45230   0.12530   0.29710
O          O       0.12530   0.29710   0.45230
O          O       0.12530   0.12530   0.45230
O          O       0.29710   0.12530   0.45230
O          O       0.87470   0.54770   0.70290
O          O       0.70290   0.54770   0.87470
O          O       0.87470   0.54770   0.87470
O          O       0.12530   0.45230   0.29710
O          O       0.12530   0.45230   0.12530
O          O       0.29710   0.45230   0.12530
O          O       0.87470   0.70290   0.54770
O          O       0.70290   0.87470   0.54770
O          O       0.87470   0.87470   0.54770
O          O       0.29710   0.12530   0.12530
O          O       0.12530   0.12530   0.29710
O          O       0.12530   0.29710   0.12530
O          O       0.54770   0.87470   0.87470
O          O       0.54770   0.70290   0.87470
O          O       0.54770   0.87470   0.70290
O          O       0.98740   0.59420   0.59420
O          O       0.59420   0.59420   0.98740
O          O       0.59420   0.98740   0.59420
O          O       0.17580   0.40580   0.40580
O          O       0.17580   0.01260   0.40580
O          O       0.17580   0.40580   0.01260
O          O       0.40580   0.01260   0.17580
O          O       0.40580   0.40580   0.17580
O          O       0.01260   0.40580   0.17580
O          O       0.59420   0.82420   0.98740
O          O       0.98740   0.82420   0.59420
O          O       0.59420   0.82420   0.59420
O          O       0.40580   0.17580   0.01260
O          O       0.40580   0.17580   0.40580
O          O       0.01260   0.17580   0.40580
O          O       0.59420   0.98740   0.82420
O          O       0.98740   0.59420   0.82420
O          O       0.59420   0.59420   0.82420
O          O       0.01260   0.40580   0.40580
O          O       0.40580   0.40580   0.01260
O          O       0.40580   0.01260   0.40580
O          O       0.82420   0.59420   0.59420
O          O       0.82420   0.98740   0.59420
O          O       0.82420   0.59420   0.98740
O          O       0.96730   0.73530   0.73530
O          O       0.73530   0.73530   0.96730
O          O       0.73530   0.96730   0.73530
O          O       0.43790   0.26470   0.26470
O          O       0.43790   0.03270   0.26470
O          O       0.43790   0.26470   0.03270
O          O       0.26470   0.03270   0.43790
O          O       0.26470   0.26470   0.43790
O          O       0.03270   0.26470   0.43790
O          O       0.73530   0.56210   0.96730
O          O       0.96730   0.56210   0.73530
O          O       0.73530   0.56210   0.73530
O          O       0.26470   0.43790   0.03270
O          O       0.26470   0.43790   0.26470
O          O       0.03270   0.43790   0.26470
O          O       0.73530   0.96730   0.56210
O          O       0.96730   0.73530   0.56210
O          O       0.73530   0.73530   0.56210
O          O       0.03270   0.26470   0.26470
O          O       0.26470   0.26470   0.03270
O          O       0.26470   0.03270   0.26470
O          O       0.56210   0.73530   0.73530
O          O       0.56210   0.96730   0.73530
O          O       0.56210   0.73530   0.96730
O          O       0.75800   0.94420   0.94420
O          O       0.94420   0.94420   0.75800
O          O       0.94420   0.75800   0.94420
O          O       0.64640   0.05580   0.05580
O          O       0.64640   0.24200   0.05580
O          O       0.64640   0.05580   0.24200
O          O       0.05580   0.24200   0.64640
O          O       0.05580   0.05580   0.64640
O          O       0.24200   0.05580   0.64640
O          O       0.94420   0.35360   0.75800
O          O       0.75800   0.35360   0.94420
O          O       0.94420   0.35360   0.94420
O          O       0.05580   0.64640   0.24200
O          O       0.05580   0.64640   0.05580
O          O       0.24200   0.64640   0.05580
O          O       0.94420   0.75800   0.35360
O          O       0.75800   0.94420   0.35360
O          O       0.94420   0.94420   0.35360
O          O       0.24200   0.05580   0.05580
O          O       0.05580   0.05580   0.24200
O          O       0.05580   0.24200   0.05580
O          O       0.35360   0.94420   0.94420
O          O       0.35360   0.75800   0.94420
O          O       0.35360   0.94420   0.75800
O          O       0.03580   0.80960   0.80960
O          O       0.80960   0.80960   0.03580
O          O       0.80960   0.03580   0.80960
O          O       0.65500   0.19040   0.19040
O          O       0.65500   0.96420   0.19040
O          O       0.65500   0.19040   0.96420
O          O       0.19040   0.96420   0.65500
O          O       0.19040   0.19040   0.65500
O          O       0.96420   0.19040   0.65500
O          O       0.80960   0.34500   0.03580
O          O       0.03580   0.34500   0.80960
O          O       0.80960   0.34500   0.80960
O          O       0.19040   0.65500   0.96420
O          O       0.19040   0.65500   0.19040
O          O       0.96420   0.65500   0.19040
O          O       0.80960   0.03580   0.34500
O          O       0.03580   0.80960   0.34500
O          O       0.80960   0.80960   0.34500
O          O       0.96420   0.19040   0.19040
O          O       0.19040   0.19040   0.96420
O          O       0.19040   0.96420   0.19040
O          O       0.34500   0.80960   0.80960
O          O       0.34500   0.03580   0.80960
O          O       0.34500   0.80960   0.03580
O          O       0.68650   0.09030   0.90970
O          O       0.09030   0.90970   0.68650
O          O       0.90970   0.68650   0.09030
O          O       0.68650   0.31350   0.09030
O          O       0.68650   0.90970   0.31350
O          O       0.90970   0.31350   0.68650
O          O       0.31350   0.09030   0.68650
O          O       0.09030   0.31350   0.90970
O          O       0.68650   0.90970   0.09030
O          O       0.09030   0.68650   0.90970
O          O       0.90970   0.09030   0.68650
O          O       0.68650   0.09030   0.31350
O          O       0.68650   0.31350   0.90970
O          O       0.90970   0.68650   0.31350
O          O       0.31350   0.68650   0.09030
O          O       0.09030   0.90970   0.31350
O          O       0.31350   0.90970   0.09030
O          O       0.90970   0.09030   0.31350
O          O       0.31350   0.68650   0.90970
O          O       0.09030   0.68650   0.31350
O          O       0.31350   0.09030   0.90970
O          O       0.90970   0.31350   0.09030
O          O       0.31350   0.90970   0.68650
O          O       0.09030   0.31350   0.68650
Si         Si      0.96090   0.82050   0.67930
Si         Si      0.82050   0.67930   0.96090
Si         Si      0.67930   0.96090   0.82050
Si         Si      0.46070   0.32070   0.17950
Si         Si      0.46070   0.03910   0.32070
Si         Si      0.46070   0.17950   0.03910
Si         Si      0.17950   0.03910   0.46070
Si         Si      0.32070   0.17950   0.46070
Si         Si      0.03910   0.32070   0.46070
Si         Si      0.67930   0.53930   0.96090
Si         Si      0.96090   0.53930   0.82050
Si         Si      0.82050   0.53930   0.67930
Si         Si      0.96090   0.67930   0.82050
Si         Si      0.82050   0.96090   0.67930
Si         Si      0.67930   0.82050   0.96090
Si         Si      0.46070   0.17950   0.32070
Si         Si      0.46070   0.32070   0.03910
Si         Si      0.46070   0.03910   0.17950
Si         Si      0.17950   0.46070   0.03910
Si         Si      0.32070   0.46070   0.17950
Si         Si      0.03910   0.46070   0.32070
Si         Si      0.67930   0.96090   0.53930
Si         Si      0.96090   0.82050   0.53930
Si         Si      0.82050   0.67930   0.53930
Si         Si      0.03910   0.17950   0.32070
Si         Si      0.17950   0.32070   0.03910
Si         Si      0.32070   0.03910   0.17950
Si         Si      0.53930   0.67930   0.82050
Si         Si      0.53930   0.96090   0.67930
Si         Si      0.53930   0.82050   0.96090
Si         Si      0.82050   0.96090   0.53930
Si         Si      0.67930   0.82050   0.53930
Si         Si      0.96090   0.67930   0.53930
Si         Si      0.32070   0.46070   0.03910
Si         Si      0.03910   0.46070   0.17950
Si         Si      0.17950   0.46070   0.32070
Si         Si      0.03910   0.32070   0.17950
Si         Si      0.17950   0.03910   0.32070
Si         Si      0.32070   0.17950   0.03910
Si         Si      0.53930   0.82050   0.67930
Si         Si      0.53930   0.67930   0.96090
Si         Si      0.53930   0.96090   0.82050
Si         Si      0.82050   0.53930   0.96090
Si         Si      0.67930   0.53930   0.82050
Si         Si      0.96090   0.53930   0.67930
Si         Si      0.32070   0.03910   0.46070
Si         Si      0.03910   0.17950   0.46070
Si         Si      0.17950   0.32070   0.46070
Si         Si      0.02080   0.87800   0.73480
Si         Si      0.87800   0.73480   0.02080
Si         Si      0.73480   0.02080   0.87800
Si         Si      0.63360   0.26520   0.12200
Si         Si      0.63360   0.97920   0.26520
Si         Si      0.63360   0.12200   0.97920
Si         Si      0.12200   0.97920   0.63360
Si         Si      0.26520   0.12200   0.63360
Si         Si      0.97920   0.26520   0.63360
Si         Si      0.73480   0.36640   0.02080
Si         Si      0.02080   0.36640   0.87800
Si         Si      0.87800   0.36640   0.73480
Si         Si      0.02080   0.73480   0.87800
Si         Si      0.87800   0.02080   0.73480
Si         Si      0.73480   0.87800   0.02080
Si         Si      0.63360   0.12200   0.26520
Si         Si      0.63360   0.26520   0.97920
Si         Si      0.63360   0.97920   0.12200
Si         Si      0.12200   0.63360   0.97920
Si         Si      0.26520   0.63360   0.12200
Si         Si      0.97920   0.63360   0.26520
Si         Si      0.73480   0.02080   0.36640
Si         Si      0.02080   0.87800   0.36640
Si         Si      0.87800   0.73480   0.36640
Si         Si      0.97920   0.12200   0.26520
Si         Si      0.12200   0.26520   0.97920
Si         Si      0.26520   0.97920   0.12200
Si         Si      0.36640   0.73480   0.87800
Si         Si      0.36640   0.02080   0.73480
Si         Si      0.36640   0.87800   0.02080
Si         Si      0.87800   0.02080   0.36640
Si         Si      0.73480   0.87800   0.36640
Si         Si      0.02080   0.73480   0.36640
Si         Si      0.26520   0.63360   0.97920
Si         Si      0.97920   0.63360   0.12200
Si         Si      0.12200   0.63360   0.26520
Si         Si      0.97920   0.26520   0.12200
Si         Si      0.12200   0.97920   0.26520
Si         Si      0.26520   0.12200   0.97920
Si         Si      0.36640   0.87800   0.73480
Si         Si      0.36640   0.73480   0.02080
Si         Si      0.36640   0.02080   0.87800
Si         Si      0.87800   0.36640   0.02080
Si         Si      0.73480   0.36640   0.87800
Si         Si      0.02080   0.36640   0.73480
Si         Si      0.26520   0.97920   0.63360
Si         Si      0.97920   0.12200   0.63360
Si         Si      0.12200   0.26520   0.63360
