data_crystal

_cell_length_a    17.14602
_cell_length_b    17.14602
_cell_length_c    19.59600
_cell_angle_alpha 87.40207
_cell_angle_beta  87.40207
_cell_angle_gamma 71.41720

_space_group_name_Hall 'P 1'
_space_group_name_H-M_alt 'P 1'

loop_
_symmetry_equiv_pos_as_xyz
 'x,y,z'

loop_
_atom_site_label
_atom_site_type_symbol
_atom_site_fract_x
_atom_site_fract_y
_atom_site_fract_z
O          O       0.13590   0.95350   0.10120
O          O       0.04650   0.86410   0.89880
O          O       0.86410   0.04650   0.89880
O          O       0.95350   0.13590   0.10120
O          O       0.29180   0.88300   0.06540
O          O       0.11700   0.70820   0.93460
O          O       0.70820   0.11700   0.93460
O          O       0.88300   0.29180   0.06540
O          O       0.24580   0.02520   0.12530
O          O       0.97480   0.75420   0.87470
O          O       0.75420   0.97480   0.87470
O          O       0.02520   0.24580   0.12530
O          O       0.20360   0.01680   0.99940
O          O       0.98320   0.79640   0.00060
O          O       0.79640   0.98320   0.00060
O          O       0.01680   0.20360   0.99940
O          O       0.32120   0.92320   0.36190
O          O       0.07680   0.67880   0.63810
O          O       0.67880   0.07680   0.63810
O          O       0.92320   0.32120   0.36190
O          O       0.37300   0.88140   0.23720
O          O       0.11860   0.62700   0.76280
O          O       0.62700   0.11860   0.76280
O          O       0.88140   0.37300   0.23720
O          O       0.23410   0.00030   0.25810
O          O       0.99970   0.76590   0.74190
O          O       0.76590   0.99970   0.74190
O          O       0.00030   0.23410   0.25810
O          O       0.24290   0.84710   0.28960
O          O       0.15290   0.75710   0.71040
O          O       0.75710   0.15290   0.71040
O          O       0.84710   0.24290   0.28960
O          O       0.14350   0.95510   0.90110
O          O       0.04490   0.85650   0.09890
O          O       0.85650   0.04490   0.09890
O          O       0.95510   0.14350   0.90110
O          O       0.11500   0.11500   0.90480
O          O       0.88500   0.88500   0.09520
O          O       0.26330   0.01770   0.87370
O          O       0.98230   0.73670   0.12630
O          O       0.73670   0.98230   0.12630
O          O       0.01770   0.26330   0.87370
O          O       0.28060   0.12460   0.20860
O          O       0.87540   0.71940   0.79140
O          O       0.71940   0.87540   0.79140
O          O       0.12460   0.28060   0.20860
O          O       0.12750   0.12750   0.19780
O          O       0.87250   0.87250   0.80220
O          O       0.44050   0.83930   0.11660
O          O       0.16070   0.55950   0.88340
O          O       0.55950   0.16070   0.88340
O          O       0.83930   0.44050   0.11660
O          O       0.42280   0.80920   0.98890
O          O       0.19080   0.57720   0.01110
O          O       0.57720   0.19080   0.01110
O          O       0.80920   0.42280   0.98890
O          O       0.37410   0.72730   0.08980
O          O       0.27270   0.62590   0.91020
O          O       0.62590   0.27270   0.91020
O          O       0.72730   0.37410   0.08980
O          O       0.41380   0.00060   0.82640
O          O       0.99940   0.58620   0.17360
O          O       0.58620   0.99940   0.17360
O          O       0.00060   0.41380   0.82640
O          O       0.47480   0.12020   0.79150
O          O       0.87980   0.52520   0.20850
O          O       0.52520   0.87980   0.20850
O          O       0.12020   0.47480   0.79150
O          O       0.43960   0.03480   0.69690
O          O       0.96520   0.56040   0.30310
O          O       0.56040   0.96520   0.30310
O          O       0.03480   0.43960   0.69690
O          O       0.56580   0.96700   0.77500
O          O       0.03300   0.43420   0.22500
O          O       0.43420   0.03300   0.22500
O          O       0.96700   0.56580   0.77500
O          O       0.35320   0.73140   0.91070
O          O       0.26860   0.64680   0.08930
O          O       0.64680   0.26860   0.08930
O          O       0.73140   0.35320   0.91070
O          O       0.24670   0.74430   0.81500
O          O       0.25570   0.75330   0.18500
O          O       0.75330   0.25570   0.18500
O          O       0.74430   0.24670   0.81500
O          O       0.38620   0.62140   0.81460
O          O       0.37860   0.61380   0.18540
O          O       0.61380   0.37860   0.18540
O          O       0.62140   0.38620   0.81460
O          O       0.37340   0.87040   0.86700
O          O       0.12960   0.62660   0.13300
O          O       0.62660   0.12960   0.13300
O          O       0.87040   0.37340   0.86700
O          O       0.31350   0.95090   0.75450
O          O       0.04910   0.68650   0.24550
O          O       0.68650   0.04910   0.24550
O          O       0.95090   0.31350   0.75450
O          O       0.50150   0.73630   0.87890
O          O       0.26370   0.49850   0.12110
O          O       0.49850   0.26370   0.12110
O          O       0.73630   0.50150   0.87890
O          O       0.00730   0.00730   0.83240
O          O       0.99270   0.99270   0.16760
O          O       0.13160   0.88380   0.78780
O          O       0.11620   0.86840   0.21220
O          O       0.86840   0.11620   0.21220
O          O       0.88380   0.13160   0.78780
O          O       0.52430   0.71890   0.35660
O          O       0.28110   0.47570   0.64340
O          O       0.47570   0.28110   0.64340
O          O       0.71890   0.52430   0.35660
O          O       0.45710   0.62310   0.29610
O          O       0.37690   0.54290   0.70390
O          O       0.54290   0.37690   0.70390
O          O       0.62310   0.45710   0.29610
O          O       0.49270   0.74070   0.22470
O          O       0.25930   0.50730   0.77530
O          O       0.50730   0.25930   0.77530
O          O       0.74070   0.49270   0.22470
O          O       0.61150   0.61150   0.26870
O          O       0.38850   0.38850   0.73130
O          O       0.55660   0.71100   0.75130
O          O       0.28900   0.44340   0.24870
O          O       0.44340   0.28900   0.24870
O          O       0.71100   0.55660   0.75130
O          O       0.65720   0.65720   0.85250
O          O       0.34280   0.34280   0.14750
O          O       0.59850   0.81570   0.82440
O          O       0.18430   0.40150   0.17560
O          O       0.40150   0.18430   0.17560
O          O       0.81570   0.59850   0.82440
O          O       0.63370   0.84170   0.69550
O          O       0.15830   0.36630   0.30450
O          O       0.36630   0.15830   0.30450
O          O       0.84170   0.63370   0.69550
O          O       0.46830   0.87050   0.55420
O          O       0.12950   0.53170   0.44580
O          O       0.53170   0.12950   0.44580
O          O       0.87050   0.46830   0.55420
O          O       0.62880   0.81240   0.56550
O          O       0.18760   0.37120   0.43450
O          O       0.37120   0.18760   0.43450
O          O       0.81240   0.62880   0.56550
O          O       0.55430   0.74230   0.48430
O          O       0.25770   0.44570   0.51570
O          O       0.44570   0.25770   0.51570
O          O       0.74230   0.55430   0.48430
O          O       0.53430   0.72970   0.61870
O          O       0.27030   0.46570   0.38130
O          O       0.46570   0.27030   0.38130
O          O       0.72970   0.53430   0.61870
O          O       0.44470   0.66050   0.69640
O          O       0.33950   0.55530   0.30360
O          O       0.55530   0.33950   0.30360
O          O       0.66050   0.44470   0.69640
O          O       0.42180   0.81840   0.70540
O          O       0.18160   0.57820   0.29460
O          O       0.57820   0.18160   0.29460
O          O       0.81840   0.42180   0.70540
O          O       0.31050   0.07310   0.39730
O          O       0.92690   0.68950   0.60270
O          O       0.68950   0.92690   0.60270
O          O       0.07310   0.31050   0.39730
O          O       0.22880   0.22880   0.37390
O          O       0.77120   0.77120   0.62610
O          O       0.51990   0.51990   0.75920
O          O       0.48010   0.48010   0.24080
O          O       0.26340   0.83500   0.70640
O          O       0.16500   0.73660   0.29360
O          O       0.73660   0.16500   0.29360
O          O       0.83500   0.26340   0.70640
O          O       0.59020   0.83220   0.38310
O          O       0.16780   0.40980   0.61690
O          O       0.40980   0.16780   0.61690
O          O       0.83220   0.59020   0.38310
O          O       0.59680   0.97120   0.42980
O          O       0.02880   0.40320   0.57020
O          O       0.40320   0.02880   0.57020
O          O       0.97120   0.59680   0.42980
O          O       0.45330   0.95550   0.40080
O          O       0.04450   0.54670   0.59920
O          O       0.54670   0.04450   0.59920
O          O       0.95550   0.45330   0.40080
O          O       0.33520   0.95320   0.48970
O          O       0.04680   0.66480   0.51030
O          O       0.66480   0.04680   0.51030
O          O       0.95320   0.33520   0.48970
O          O       0.32620   0.92700   0.62260
O          O       0.07300   0.67380   0.37740
O          O       0.67380   0.07300   0.37740
O          O       0.92700   0.32620   0.62260
O          O       0.67650   0.67650   0.39730
O          O       0.32350   0.32350   0.60270
Si         Si      0.29260   0.91260   0.28670
Si         Si      0.08740   0.70740   0.71330
Si         Si      0.70740   0.08740   0.71330
Si         Si      0.91260   0.29260   0.28670
Si         Si      0.31470   0.68090   0.86190
Si         Si      0.31910   0.68530   0.13810
Si         Si      0.68530   0.31910   0.13810
Si         Si      0.68090   0.31470   0.86190
Si         Si      0.34070   0.96030   0.83050
Si         Si      0.03970   0.65930   0.16950
Si         Si      0.65930   0.03970   0.16950
Si         Si      0.96030   0.34070   0.83050
Si         Si      0.21930   0.96930   0.07270
Si         Si      0.03070   0.78070   0.92730
Si         Si      0.78070   0.03070   0.92730
Si         Si      0.96930   0.21930   0.07270
Si         Si      0.41290   0.78710   0.91150
Si         Si      0.21290   0.58710   0.08850
Si         Si      0.58710   0.21290   0.08850
Si         Si      0.78710   0.41290   0.91150
Si         Si      0.08220   0.92740   0.85490
Si         Si      0.07260   0.91780   0.14510
Si         Si      0.91780   0.07260   0.14510
Si         Si      0.92740   0.08220   0.85490
Si         Si      0.52130   0.67410   0.28670
Si         Si      0.32590   0.47870   0.71330
Si         Si      0.47870   0.32590   0.71330
Si         Si      0.67410   0.52130   0.28670
Si         Si      0.57800   0.73020   0.82660
Si         Si      0.26980   0.42200   0.17340
Si         Si      0.42200   0.26980   0.17340
Si         Si      0.73020   0.57800   0.82660
Si         Si      0.18120   0.02600   0.91990
Si         Si      0.97400   0.81880   0.08010
Si         Si      0.81880   0.97400   0.08010
Si         Si      0.02600   0.18120   0.91990
Si         Si      0.62950   0.87510   0.77150
Si         Si      0.12490   0.37050   0.22850
Si         Si      0.37050   0.12490   0.22850
Si         Si      0.87510   0.62950   0.77150
Si         Si      0.22210   0.06930   0.19750
Si         Si      0.93070   0.77790   0.80250
Si         Si      0.77790   0.93070   0.80250
Si         Si      0.06930   0.22210   0.19750
Si         Si      0.54670   0.78830   0.55530
Si         Si      0.21170   0.45330   0.44470
Si         Si      0.45330   0.21170   0.44470
Si         Si      0.78830   0.54670   0.55530
Si         Si      0.48950   0.73010   0.69270
Si         Si      0.26990   0.51050   0.30730
Si         Si      0.51050   0.26990   0.30730
Si         Si      0.73010   0.48950   0.69270
Si         Si      0.31930   0.16230   0.37790
Si         Si      0.83770   0.68070   0.62210
Si         Si      0.68070   0.83770   0.62210
Si         Si      0.16230   0.31930   0.37790
Si         Si      0.43150   0.58610   0.74360
Si         Si      0.41390   0.56850   0.25640
Si         Si      0.56850   0.41390   0.25640
Si         Si      0.58610   0.43150   0.74360
Si         Si      0.19900   0.80520   0.75460
Si         Si      0.19480   0.80100   0.24540
Si         Si      0.80100   0.19480   0.24540
Si         Si      0.80520   0.19900   0.75460
Si         Si      0.54960   0.93080   0.37960
Si         Si      0.06920   0.45040   0.62040
Si         Si      0.45040   0.06920   0.62040
Si         Si      0.93080   0.54960   0.37960
Si         Si      0.45780   0.83480   0.19700
Si         Si      0.16520   0.54220   0.80300
Si         Si      0.54220   0.16520   0.80300
Si         Si      0.83480   0.45780   0.19700
Si         Si      0.38290   0.94470   0.56000
Si         Si      0.05530   0.61710   0.44000
Si         Si      0.61710   0.05530   0.44000
Si         Si      0.94470   0.38290   0.56000
Si         Si      0.33050   0.88250   0.69710
Si         Si      0.11750   0.66950   0.30290
Si         Si      0.66950   0.11750   0.30290
Si         Si      0.88250   0.33050   0.69710
Si         Si      0.58580   0.74220   0.40570
Si         Si      0.25780   0.41420   0.59430
Si         Si      0.41420   0.25780   0.59430
Si         Si      0.74220   0.58580   0.40570
Si         Si      0.38200   0.81540   0.06490
Si         Si      0.18460   0.61800   0.93510
Si         Si      0.61800   0.18460   0.93510
Si         Si      0.81540   0.38200   0.06490
Si         Si      0.35540   0.97620   0.41160
Si         Si      0.02380   0.64460   0.58840
Si         Si      0.64460   0.02380   0.58840
Si         Si      0.97620   0.35540   0.41160
Si         Si      0.47350   0.03010   0.77280
Si         Si      0.96990   0.52650   0.22720
Si         Si      0.52650   0.96990   0.22720
Si         Si      0.03010   0.47350   0.77280
