data_crystal

_cell_length_a    8.88345
_cell_length_b    8.88345
_cell_length_c    10.79505
_cell_angle_alpha 103.17672
_cell_angle_beta  103.17672
_cell_angle_gamma 116.48626

_space_group_name_Hall 'P 1'
_space_group_name_H-M_alt 'P 1'

loop_
_symmetry_equiv_pos_as_xyz
 'x,y,z'

loop_
_atom_site_label
_atom_site_type_symbol
_atom_site_fract_x
_atom_site_fract_y
_atom_site_fract_z
O          O       0.39600   0.60400   0.50000
O          O       0.89600   0.10400   0.50000
O          O       0.38100   0.85780   0.67160
O          O       0.70940   0.18620   0.32840
O          O       0.81380   0.29060   0.67160
O          O       0.14220   0.61900   0.32840
O          O       0.68610   0.49510   0.76780
O          O       0.91830   0.72730   0.23220
O          O       0.27270   0.08170   0.76780
O          O       0.50490   0.31390   0.23220
O          O       0.03860   0.18900   0.76800
O          O       0.27060   0.42100   0.23200
O          O       0.57900   0.72940   0.76800
O          O       0.81100   0.96140   0.23200
O          O       0.62490   0.37510   0.50000
O          O       0.12490   0.87510   0.50000
O          O       0.46070   0.14670   0.60740
O          O       0.85330   0.53930   0.39260
O          O       0.70190   0.69310   0.00000
O          O       0.30690   0.29810   0.00000
O          O       0.68650   0.94010   0.62660
O          O       0.05990   0.31350   0.37340
O          O       0.38040   0.42700   0.80740
O          O       0.57300   0.61960   0.19260
Si         Si      0.85720   0.12920   0.64140
Si         Si      0.21580   0.48780   0.35860
Si         Si      0.51220   0.78420   0.64140
Si         Si      0.87080   0.14280   0.35860
Si         Si      0.30860   0.98880   0.63860
Si         Si      0.67000   0.35020   0.36140
Si         Si      0.64980   0.33000   0.63860
Si         Si      0.01120   0.69140   0.36140
Si         Si      0.58510   0.58510   0.83560
Si         Si      0.74950   0.74950   0.16440
Si         Si      0.25050   0.25050   0.83560
Si         Si      0.41490   0.41490   0.16440
