data_crystal

_cell_length_a    12.12500
_cell_length_b    12.12500
_cell_length_c    16.68871
_cell_angle_alpha 111.30113
_cell_angle_beta  111.30113
_cell_angle_gamma 90.00000

_space_group_name_Hall 'P 1'
_space_group_name_H-M_alt 'P 1'

loop_
_symmetry_equiv_pos_as_xyz
 'x,y,z'

loop_
_atom_site_label
_atom_site_type_symbol
_atom_site_fract_x
_atom_site_fract_y
_atom_site_fract_z
O          O       0.37730   0.08260   0.16520
O          O       0.08260   0.37730   0.16520
O          O       0.78790   0.08260   0.16520
O          O       0.08260   0.78790   0.16520
O          O       0.62270   0.91740   0.83480
O          O       0.91740   0.62270   0.83480
O          O       0.21210   0.91740   0.83480
O          O       0.91740   0.21210   0.83480
O          O       0.20390   0.00000   0.00000
O          O       1.00000   0.20390   1.00000
O          O       0.79610   0.00000   0.00000
O          O       0.00000   0.79610   0.00000
O          O       0.17660   0.17660   0.13640
O          O       0.95980   0.17660   0.13640
O          O       0.95980   0.95980   0.13640
O          O       0.17660   0.95980   0.13640
O          O       0.82340   0.82340   0.86360
O          O       0.04020   0.82340   0.86360
O          O       0.04020   0.04020   0.86360
O          O       0.82340   0.04020   0.86360
O          O       0.62220   0.37780   0.50000
O          O       0.12220   0.62220   0.50000
O          O       0.87780   0.12220   0.50000
O          O       0.37780   0.87780   0.50000
O          O       0.87780   0.37780   0.50000
O          O       0.37780   0.62220   0.50000
O          O       0.62220   0.12220   0.50000
O          O       0.12220   0.87780   0.50000
O          O       0.50160   0.26670   0.31740
O          O       0.05070   0.50160   0.31740
O          O       0.81580   0.05070   0.31740
O          O       0.26670   0.81580   0.31740
O          O       0.81580   0.26670   0.31740
O          O       0.26670   0.50160   0.31740
O          O       0.50160   0.05070   0.31740
O          O       0.05070   0.81580   0.31740
O          O       0.49840   0.73330   0.68260
O          O       0.94930   0.49840   0.68260
O          O       0.18420   0.94930   0.68260
O          O       0.73330   0.18420   0.68260
O          O       0.18420   0.73330   0.68260
O          O       0.73330   0.49840   0.68260
O          O       0.49840   0.94930   0.68260
O          O       0.94930   0.18420   0.68260
O          O       0.69160   0.42550   0.38320
O          O       0.95770   0.69160   0.38320
O          O       0.69160   0.95770   0.38320
O          O       0.42550   0.69160   0.38320
O          O       0.30840   0.57450   0.61680
O          O       0.04230   0.30840   0.61680
O          O       0.30840   0.04230   0.61680
O          O       0.57450   0.30840   0.61680
O          O       0.49600   0.49600   0.40280
O          O       0.90680   0.49600   0.40280
O          O       0.90680   0.90680   0.40280
O          O       0.49600   0.90680   0.40280
O          O       0.50400   0.50400   0.59720
O          O       0.09320   0.50400   0.59720
O          O       0.09320   0.09320   0.59720
O          O       0.50400   0.09320   0.59720
O          O       0.61380   0.11380   0.22760
O          O       0.11380   0.61380   0.22760
O          O       0.38620   0.88620   0.77240
O          O       0.88620   0.38620   0.77240
Si         Si      0.23400   0.05520   0.11040
Si         Si      0.05520   0.23400   0.11040
Si         Si      0.87640   0.05520   0.11040
Si         Si      0.05520   0.87640   0.11040
Si         Si      0.76600   0.94480   0.88960
Si         Si      0.94480   0.76600   0.88960
Si         Si      0.12360   0.94480   0.88960
Si         Si      0.94480   0.12360   0.88960
Si         Si      0.57670   0.39080   0.40100
Si         Si      0.01020   0.57670   0.40100
Si         Si      0.82430   0.01020   0.40100
Si         Si      0.39080   0.82430   0.40100
Si         Si      0.82430   0.39080   0.40100
Si         Si      0.39080   0.57670   0.40100
Si         Si      0.57670   0.01020   0.40100
Si         Si      0.01020   0.82430   0.40100
Si         Si      0.42330   0.60920   0.59900
Si         Si      0.98980   0.42330   0.59900
Si         Si      0.17570   0.98980   0.59900
Si         Si      0.60920   0.17570   0.59900
Si         Si      0.17570   0.60920   0.59900
Si         Si      0.60920   0.42330   0.59900
Si         Si      0.42330   0.98980   0.59900
Si         Si      0.98980   0.17570   0.59900
Si         Si      0.50020   0.12840   0.25680
Si         Si      0.12840   0.50020   0.25680
Si         Si      0.75660   0.12840   0.25680
Si         Si      0.12840   0.75660   0.25680
Si         Si      0.49980   0.87160   0.74320
Si         Si      0.87160   0.49980   0.74320
Si         Si      0.24340   0.87160   0.74320
Si         Si      0.87160   0.24340   0.74320
