data_crystal

_cell_length_a    7.54600
_cell_length_b    9.06800
_cell_length_c    19.90500
_cell_angle_alpha 90.00000
_cell_angle_beta  90.00000
_cell_angle_gamma 90.00000

_space_group_name_Hall 'P 1'
_space_group_name_H-M_alt 'P 1'

loop_
_symmetry_equiv_pos_as_xyz
 'x,y,z'

loop_
_atom_site_label
_atom_site_type_symbol
_atom_site_fract_x
_atom_site_fract_y
_atom_site_fract_z
Si         Si      0.20360   0.29090   0.05290
Si         Si      0.79640   0.29090   0.44710
Si         Si      0.20360   0.70910   0.94710
Si         Si      0.79640   0.70910   0.55290
Si         Si      0.79640   0.70910   0.94710
Si         Si      0.20360   0.70910   0.55290
Si         Si      0.79640   0.29090   0.05290
Si         Si      0.20360   0.29090   0.44710
Si         Si      0.20370   0.61760   0.09520
Si         Si      0.79630   0.61760   0.40480
Si         Si      0.20370   0.38240   0.90480
Si         Si      0.79630   0.38240   0.59520
Si         Si      0.79630   0.38240   0.90480
Si         Si      0.20370   0.38240   0.59520
Si         Si      0.79630   0.61760   0.09520
Si         Si      0.20370   0.61760   0.40480
Si         Si      0.50000   0.06500   0.07510
Si         Si      0.50000   0.06500   0.42490
Si         Si      0.50000   0.93500   0.92490
Si         Si      0.50000   0.93500   0.57510
Si         Si      0.50000   0.21840   0.67140
Si         Si      0.50000   0.21840   0.82860
Si         Si      0.50000   0.78160   0.32860
Si         Si      0.50000   0.78160   0.17140
O          O       0.26570   0.31960   0.97670
O          O       0.73430   0.31960   0.52330
O          O       0.26570   0.68040   0.02330
O          O       0.73430   0.68040   0.47670
O          O       0.73430   0.68040   0.02330
O          O       0.26570   0.68040   0.47670
O          O       0.73430   0.31960   0.97670
O          O       0.26570   0.31960   0.52330
O          O       0.00000   0.23790   0.05350
O          O       0.00000   0.23790   0.44650
O          O       0.00000   0.76210   0.94650
O          O       0.00000   0.76210   0.55350
O          O       0.22280   0.44080   0.09570
O          O       0.77720   0.44080   0.40430
O          O       0.22280   0.55920   0.90430
O          O       0.77720   0.55920   0.59570
O          O       0.77720   0.55920   0.90430
O          O       0.22280   0.55920   0.59570
O          O       0.77720   0.44080   0.09570
O          O       0.22280   0.44080   0.40430
O          O       0.32590   0.16480   0.08600
O          O       0.67410   0.16480   0.41400
O          O       0.32590   0.83520   0.91400
O          O       0.67410   0.83520   0.58600
O          O       0.67410   0.83520   0.91400
O          O       0.32590   0.83520   0.58600
O          O       0.67410   0.16480   0.08600
O          O       0.32590   0.16480   0.41400
O          O       0.32580   0.68680   0.15360
O          O       0.67420   0.68680   0.34640
O          O       0.32580   0.31320   0.84640
O          O       0.67420   0.31320   0.65360
O          O       0.67420   0.31320   0.84640
O          O       0.32580   0.31320   0.65360
O          O       0.67420   0.68680   0.15360
O          O       0.32580   0.68680   0.34640
O          O       0.00000   0.66190   0.10830
O          O       0.00000   0.66190   0.39170
O          O       0.00000   0.33810   0.89170
O          O       0.00000   0.33810   0.60830
O          O       0.50000   0.00000   0.00000
O          O       0.50000   0.00000   0.50000
O          O       0.50000   0.93160   0.12830
O          O       0.50000   0.93160   0.37170
O          O       0.50000   0.06840   0.87170
O          O       0.50000   0.06840   0.62830
O          O       0.50000   0.17720   0.75000
O          O       0.50000   0.82280   0.25000
