data_crystal

_cell_length_a    12.71775
_cell_length_b    21.98932
_cell_length_c    22.28322
_cell_angle_alpha 119.56465
_cell_angle_beta  90.00000
_cell_angle_gamma 90.00000

_space_group_name_Hall 'P 1'
_space_group_name_H-M_alt 'P 1'

loop_
_symmetry_equiv_pos_as_xyz
 'x,y,z'

loop_
_atom_site_label
_atom_site_type_symbol
_atom_site_fract_x
_atom_site_fract_y
_atom_site_fract_z
O          O       0.17169   0.12832   0.60374
O          O       0.82831   0.47542   0.60374
O          O       0.82831   0.12832   0.60374
O          O       0.17169   0.47542   0.60374
O          O       0.10350   0.25336   0.69158
O          O       0.89650   0.43822   0.69158
O          O       0.89650   0.25336   0.69158
O          O       0.10350   0.43822   0.69158
O          O       0.30524   0.22684   0.68280
O          O       0.69476   0.45596   0.68280
O          O       0.69476   0.22684   0.68280
O          O       0.30524   0.45596   0.68280
O          O       0.17753   0.17234   0.73750
O          O       0.82247   0.56516   0.73750
O          O       0.82247   0.17234   0.73750
O          O       0.17753   0.56516   0.73750
O          O       0.30648   0.35224   0.93216
O          O       0.69352   0.57992   0.93216
O          O       0.69352   0.35224   0.93216
O          O       0.30648   0.57992   0.93216
O          O       0.10363   0.37180   0.92630
O          O       0.89637   0.55450   0.92630
O          O       0.89637   0.37180   0.92630
O          O       0.10363   0.55450   0.92630
O          O       0.17449   0.32767   0.00826
O          O       0.82551   0.68059   0.00826
O          O       0.82551   0.32767   0.00826
O          O       0.17449   0.68059   0.00826
O          O       0.17861   0.24435   0.87304
O          O       0.82139   0.62869   0.87304
O          O       0.82139   0.24435   0.87304
O          O       0.17861   0.62869   0.87304
O          O       0.34405   0.35782   0.71564
O          O       0.65595   0.35782   0.71564
O          O       0.50000   0.27347   0.70190
O          O       0.50000   0.42843   0.70190
O          O       0.37076   0.31609   0.80686
O          O       0.62924   0.49077   0.80686
O          O       0.62924   0.31609   0.80686
O          O       0.37076   0.49077   0.80686
O          O       0.14166   0.11049   0.81092
O          O       0.85834   0.70043   0.81092
O          O       0.85834   0.11049   0.81092
O          O       0.14166   0.70043   0.81092
O          O       0.00000   0.19589   0.80642
O          O       0.00000   0.61053   0.80642
O          O       0.18342   0.00327   0.58858
O          O       0.81658   0.58531   0.58858
O          O       0.81658   0.00327   0.58858
O          O       0.18342   0.58531   0.58858
O          O       0.13742   0.01900   0.48122
O          O       0.86258   0.46222   0.48122
O          O       0.86258   0.01900   0.48122
O          O       0.13742   0.46222   0.48122
O          O       0.00000   0.05387   0.58158
O          O       0.00000   0.52771   0.58158
O          O       0.50000   0.37992   0.91194
O          O       0.50000   0.53202   0.91194
O          O       0.34209   0.44878   0.89756
O          O       0.65791   0.44878   0.89756
O          O       0.11876   0.34014   0.12768
O          O       0.88124   0.78754   0.12768
O          O       0.88124   0.34014   0.12768
O          O       0.11876   0.78754   0.12768
O          O       0.00000   0.26875   0.01834
O          O       0.00000   0.74959   0.01834
O          O       0.18483   0.21988   0.02780
O          O       0.81517   0.80792   0.02780
O          O       0.81517   0.21988   0.02780
O          O       0.18483   0.80792   0.02780
O          O       0.13670   0.98691   0.80198
O          O       0.86330   0.81507   0.80198
O          O       0.86330   0.98691   0.80198
O          O       0.13670   0.81507   0.80198
O          O       0.00000   0.08306   0.87978
O          O       0.00000   0.79672   0.87978
O          O       0.19702   0.09599   0.91814
O          O       0.80298   0.82215   0.91814
O          O       0.80298   0.09599   0.91814
O          O       0.19702   0.82215   0.91814
O          O       0.18807   0.95328   0.67512
O          O       0.81193   0.72184   0.67512
O          O       0.81193   0.95328   0.67512
O          O       0.18807   0.72184   0.67512
O          O       0.10366   0.87981   0.55228
O          O       0.89634   0.67247   0.55228
O          O       0.89634   0.87981   0.55228
O          O       0.10366   0.67247   0.55228
O          O       0.30847   0.89941   0.56578
O          O       0.69153   0.66637   0.56578
O          O       0.69153   0.89941   0.56578
O          O       0.30847   0.66637   0.56578
O          O       0.18592   0.89404   0.38078
O          O       0.81408   0.48674   0.38078
O          O       0.81408   0.89404   0.38078
O          O       0.18592   0.48674   0.38078
O          O       0.16968   0.99891   0.35606
O          O       0.83032   0.35715   0.35606
O          O       0.83032   0.99891   0.35606
O          O       0.16968   0.35715   0.35606
O          O       0.00000   0.94788   0.38286
O          O       0.00000   0.43498   0.38286
O          O       0.30903   0.12655   0.02870
O          O       0.69097   0.90215   0.02870
O          O       0.69097   0.12655   0.02870
O          O       0.30903   0.90215   0.02870
O          O       0.10334   0.11163   0.03110
O          O       0.89666   0.91947   0.03110
O          O       0.89666   0.11163   0.03110
O          O       0.10334   0.91947   0.03110
O          O       0.18174   0.30939   0.22292
O          O       0.81826   0.91353   0.22292
O          O       0.81826   0.30939   0.22292
O          O       0.18174   0.91353   0.22292
O          O       1.00000   0.37330   0.23552
O          O       0.00000   0.86222   0.23552
O          O       0.18012   0.43875   0.24778
O          O       0.81988   0.80903   0.24778
O          O       0.81988   0.43875   0.24778
O          O       0.18012   0.80903   0.24778
O          O       0.00000   0.92397   0.70100
O          O       0.00000   0.77703   0.70100
O          O       0.16204   0.85450   0.70900
O          O       0.83796   0.85450   0.70900
O          O       0.50000   0.84971   0.55074
O          O       0.50000   0.70103   0.55074
O          O       0.37463   0.80419   0.44348
O          O       0.62537   0.63929   0.44348
O          O       0.62537   0.80419   0.44348
O          O       0.37463   0.63929   0.44348
O          O       0.33959   0.76946   0.53892
O          O       0.66041   0.76946   0.53892
O          O       0.30659   0.77946   0.32340
O          O       0.69341   0.54394   0.32340
O          O       0.69341   0.77946   0.32340
O          O       0.30659   0.54394   0.32340
O          O       0.10341   0.76838   0.33076
O          O       0.89659   0.56238   0.33076
O          O       0.89659   0.76838   0.33076
O          O       0.10341   0.56238   0.33076
O          O       0.30428   0.02610   0.28138
O          O       0.69572   0.25528   0.28138
O          O       0.69572   0.02610   0.28138
O          O       0.30428   0.25528   0.28138
O          O       0.10289   0.03806   0.26822
O          O       0.89711   0.23016   0.26822
O          O       0.89711   0.03806   0.26822
O          O       0.10289   0.23016   0.26822
O          O       0.33878   0.03444   0.06888
O          O       0.66122   0.03444   0.06888
O          O       0.50000   0.10058   0.05412
O          O       0.50000   0.95354   0.05412
O          O       0.36774   0.16734   0.15720
O          O       0.63226   0.98986   0.15720
O          O       0.63226   0.16734   0.15720
O          O       0.36774   0.98986   0.15720
O          O       0.34277   0.67370   0.34740
O          O       0.65723   0.67370   0.34740
O          O       0.50000   0.74501   0.33654
O          O       0.50000   0.59153   0.33654
O          O       0.50000   0.05115   0.26032
O          O       0.50000   0.20917   0.26032
O          O       0.34618   0.12375   0.24750
O          O       0.65382   0.12375   0.24750
O          O       0.00000   0.37191   0.74382
O          O       0.00000   0.30042   0.80876
O          O       0.00000   0.50834   0.80876
O          O       0.00000   0.43637   0.87274
O          O       0.00000   0.77595   0.55190
O          O       0.00000   0.79119   0.44218
O          O       0.00000   0.65099   0.44218
O          O       0.00000   0.03638   0.07276
O          O       0.00000   0.17283   0.14938
O          O       0.00000   0.97655   0.14938
O          O       0.00000   0.66622   0.33244
O          O       0.00000   0.11300   0.22600
Si         Si      0.19001   0.19483   0.67920
Si         Si      0.80999   0.48437   0.67920
Si         Si      0.80999   0.19483   0.67920
Si         Si      0.19001   0.48437   0.67920
Si         Si      0.19102   0.32360   0.93474
Si         Si      0.80898   0.61114   0.93474
Si         Si      0.80898   0.32360   0.93474
Si         Si      0.19102   0.61114   0.93474
Si         Si      0.37979   0.29363   0.72648
Si         Si      0.62021   0.43285   0.72648
Si         Si      0.62021   0.29363   0.72648
Si         Si      0.37979   0.43285   0.72648
Si         Si      0.12371   0.18074   0.80660
Si         Si      0.87629   0.62586   0.80660
Si         Si      0.87629   0.18074   0.80660
Si         Si      0.12371   0.62586   0.80660
Si         Si      0.12285   0.05069   0.56302
Si         Si      0.87715   0.51233   0.56302
Si         Si      0.87715   0.05069   0.56302
Si         Si      0.12285   0.51233   0.56302
Si         Si      0.37977   0.37425   0.88710
Si         Si      0.62023   0.51285   0.88710
Si         Si      0.62023   0.37425   0.88710
Si         Si      0.37977   0.51285   0.88710
Si         Si      0.11908   0.28920   0.04544
Si         Si      0.88092   0.75624   0.04544
Si         Si      0.88092   0.28920   0.04544
Si         Si      0.11908   0.75624   0.04544
Si         Si      0.11973   0.06944   0.85274
Si         Si      0.88027   0.78330   0.85274
Si         Si      0.88027   0.06944   0.85274
Si         Si      0.11973   0.78330   0.85274
Si         Si      0.19547   0.93419   0.59558
Si         Si      0.80453   0.66139   0.59558
Si         Si      0.80453   0.93419   0.59558
Si         Si      0.19547   0.66139   0.59558
Si         Si      0.12295   0.96500   0.40012
Si         Si      0.87705   0.43512   0.40012
Si         Si      0.87705   0.96500   0.40012
Si         Si      0.12295   0.43512   0.40012
Si         Si      0.19764   0.13767   0.00120
Si         Si      0.80236   0.86353   0.00120
Si         Si      0.80236   0.13767   0.00120
Si         Si      0.19764   0.86353   0.00120
Si         Si      0.11961   0.36488   0.20872
Si         Si      0.88039   0.84384   0.20872
Si         Si      0.88039   0.36488   0.20872
Si         Si      0.11961   0.84384   0.20872
Si         Si      0.12221   0.92953   0.72182
Si         Si      0.87779   0.79229   0.72182
Si         Si      0.87779   0.92953   0.72182
Si         Si      0.12221   0.79229   0.72182
Si         Si      0.38016   0.83068   0.52482
Si         Si      0.61984   0.69414   0.52482
Si         Si      0.61984   0.83068   0.52482
Si         Si      0.38016   0.69414   0.52482
Si         Si      0.19531   0.81337   0.32154
Si         Si      0.80469   0.50817   0.32154
Si         Si      0.80469   0.81337   0.32154
Si         Si      0.19531   0.50817   0.32154
Si         Si      0.19086   0.99411   0.28258
Si         Si      0.80914   0.28847   0.28258
Si         Si      0.80914   0.99411   0.28258
Si         Si      0.19086   0.28847   0.28258
Si         Si      0.37886   0.10782   0.07758
Si         Si      0.62114   0.96976   0.07758
Si         Si      0.62114   0.10782   0.07758
Si         Si      0.37886   0.96976   0.07758
Si         Si      0.38016   0.74982   0.36198
Si         Si      0.61984   0.61216   0.36198
Si         Si      0.61984   0.74982   0.36198
Si         Si      0.38016   0.61216   0.36198
Si         Si      0.37926   0.04847   0.23722
Si         Si      0.62074   0.18875   0.23722
Si         Si      0.62074   0.04847   0.23722
Si         Si      0.37926   0.18875   0.23722
Si         Si      0.00000   0.29427   0.73362
Si         Si      0.00000   0.43935   0.73362
Si         Si      0.00000   0.36949   0.88384
Si         Si      0.00000   0.51435   0.88384
Si         Si      0.00000   0.83191   0.52516
Si         Si      0.00000   0.69325   0.52516
Si         Si      0.00000   0.10871   0.07128
Si         Si      0.00000   0.96257   0.07128
Si         Si      0.00000   0.74894   0.35926
Si         Si      0.00000   0.61032   0.35926
Si         Si      0.00000   0.04068   0.22748
Si         Si      0.00000   0.18680   0.22748
