data_crystal

_cell_length_a    8.62100
_cell_length_b    8.62100
_cell_length_c    27.54400
_cell_angle_alpha 90.00000
_cell_angle_beta  90.00000
_cell_angle_gamma 90.00000

_space_group_name_Hall 'P 1'
_space_group_name_H-M_alt 'P 1'

loop_
_symmetry_equiv_pos_as_xyz
 'x,y,z'

loop_
_atom_site_label
_atom_site_type_symbol
_atom_site_fract_x
_atom_site_fract_y
_atom_site_fract_z
Si         Si      0.99590   0.81700   0.06990
Si         Si      0.68300   0.99590   0.06990
Si         Si      0.50410   0.68300   0.06990
Si         Si      0.81700   0.50410   0.06990
Si         Si      0.00410   0.31700   0.56990
Si         Si      0.31700   0.49590   0.56990
Si         Si      0.49590   0.18300   0.56990
Si         Si      0.18300   0.00410   0.56990
Si         Si      0.00410   0.18300   0.93010
Si         Si      0.31700   0.00410   0.93010
Si         Si      0.49590   0.31700   0.93010
Si         Si      0.18300   0.49590   0.93010
Si         Si      0.99590   0.68300   0.43010
Si         Si      0.68300   0.50410   0.43010
Si         Si      0.50410   0.81700   0.43010
Si         Si      0.81700   0.99590   0.43010
Si         Si      0.81800   0.50410   0.18120
Si         Si      0.99590   0.81800   0.18120
Si         Si      0.68200   0.99590   0.18120
Si         Si      0.50410   0.68200   0.18120
Si         Si      0.18200   0.00410   0.68120
Si         Si      0.00410   0.31800   0.68120
Si         Si      0.31800   0.49590   0.68120
Si         Si      0.49590   0.18200   0.68120
Si         Si      0.18200   0.49590   0.81880
Si         Si      0.00410   0.18200   0.81880
Si         Si      0.31800   0.00410   0.81880
Si         Si      0.49590   0.31800   0.81880
Si         Si      0.81800   0.99590   0.31880
Si         Si      0.99590   0.68200   0.31880
Si         Si      0.68200   0.50410   0.31880
Si         Si      0.50410   0.81800   0.31880
Si         Si      0.25000   0.75000   0.00000
Si         Si      0.75000   0.25000   0.00000
Si         Si      0.75000   0.25000   0.50000
Si         Si      0.25000   0.75000   0.50000
Si         Si      0.25000   0.75000   0.25000
Si         Si      0.75000   0.25000   0.25000
Si         Si      0.75000   0.25000   0.75000
Si         Si      0.25000   0.75000   0.75000
O          O       0.13870   0.85370   0.03400
O          O       0.64630   0.13870   0.03400
O          O       0.36130   0.64630   0.03400
O          O       0.85370   0.36130   0.03400
O          O       0.86130   0.35370   0.53400
O          O       0.35370   0.63870   0.53400
O          O       0.63870   0.14630   0.53400
O          O       0.14630   0.86130   0.53400
O          O       0.86130   0.14630   0.96600
O          O       0.35370   0.86130   0.96600
O          O       0.63870   0.35370   0.96600
O          O       0.14630   0.63870   0.96600
O          O       0.13870   0.64630   0.46600
O          O       0.64630   0.36130   0.46600
O          O       0.36130   0.85370   0.46600
O          O       0.85370   0.13870   0.46600
O          O       0.93740   0.64290   0.05960
O          O       0.85710   0.93740   0.05960
O          O       0.56260   0.85710   0.05960
O          O       0.64290   0.56260   0.05960
O          O       0.06260   0.14290   0.55960
O          O       0.14290   0.43740   0.55960
O          O       0.43740   0.35710   0.55960
O          O       0.35710   0.06260   0.55960
O          O       0.06260   0.35710   0.94040
O          O       0.14290   0.06260   0.94040
O          O       0.43740   0.14290   0.94040
O          O       0.35710   0.43740   0.94040
O          O       0.93740   0.85710   0.44040
O          O       0.85710   0.56260   0.44040
O          O       0.56260   0.64290   0.44040
O          O       0.64290   0.93740   0.44040
O          O       0.05070   0.83250   0.12560
O          O       0.66750   0.05070   0.12560
O          O       0.44930   0.66750   0.12560
O          O       0.83250   0.44930   0.12560
O          O       0.94930   0.33250   0.62560
O          O       0.33250   0.55070   0.62560
O          O       0.55070   0.16750   0.62560
O          O       0.16750   0.94930   0.62560
O          O       0.94930   0.16750   0.87440
O          O       0.33250   0.94930   0.87440
O          O       0.55070   0.33250   0.87440
O          O       0.16750   0.55070   0.87440
O          O       0.05070   0.66750   0.37440
O          O       0.66750   0.44930   0.37440
O          O       0.44930   0.83250   0.37440
O          O       0.83250   0.05070   0.37440
O          O       0.35910   0.85650   0.28380
O          O       0.64350   0.35910   0.28380
O          O       0.14090   0.64350   0.28380
O          O       0.85650   0.14090   0.28380
O          O       0.64090   0.35650   0.78380
O          O       0.35650   0.85910   0.78380
O          O       0.85910   0.14350   0.78380
O          O       0.14350   0.64090   0.78380
O          O       0.64090   0.14350   0.71620
O          O       0.35650   0.64090   0.71620
O          O       0.85910   0.35650   0.71620
O          O       0.14350   0.85910   0.71620
O          O       0.35910   0.64350   0.21620
O          O       0.64350   0.14090   0.21620
O          O       0.14090   0.85650   0.21620
O          O       0.85650   0.35910   0.21620
O          O       0.93770   0.64360   0.19160
O          O       0.85640   0.93770   0.19160
O          O       0.56230   0.85640   0.19160
O          O       0.64360   0.56230   0.19160
O          O       0.06230   0.14360   0.69160
O          O       0.14360   0.43770   0.69160
O          O       0.43770   0.35640   0.69160
O          O       0.35640   0.06230   0.69160
O          O       0.06230   0.35640   0.80840
O          O       0.14360   0.06230   0.80840
O          O       0.43770   0.14360   0.80840
O          O       0.35640   0.43770   0.80840
O          O       0.93770   0.85640   0.30840
O          O       0.85640   0.56230   0.30840
O          O       0.56230   0.64360   0.30840
O          O       0.64360   0.93770   0.30840
