data_crystal

_cell_length_a    9.67200
_cell_length_b    12.39212
_cell_length_c    12.39212
_cell_angle_alpha 63.11535
_cell_angle_beta  74.42478
_cell_angle_gamma 74.42478

_space_group_name_Hall 'P 1'
_space_group_name_H-M_alt 'P 1'

loop_
_symmetry_equiv_pos_as_xyz
 'x,y,z'

loop_
_atom_site_label
_atom_site_type_symbol
_atom_site_fract_x
_atom_site_fract_y
_atom_site_fract_z
O          O       0.18960   0.47550   0.20430
O          O       0.81040   0.79570   0.52450
O          O       0.81040   0.52450   0.79570
O          O       0.18960   0.20430   0.47550
O          O       0.11950   0.26250   0.26250
O          O       0.88050   0.73750   0.73750
O          O       0.18100   0.41100   0.03100
O          O       0.81900   0.96900   0.58900
O          O       0.81900   0.58900   0.96900
O          O       0.18100   0.03100   0.41100
O          O       0.93780   0.46690   0.16810
O          O       0.06220   0.83190   0.53310
O          O       0.06220   0.53310   0.83190
O          O       0.93780   0.16810   0.46690
O          O       0.65070   0.36070   0.95910
O          O       0.34930   0.04090   0.63930
O          O       0.34930   0.63930   0.04090
O          O       0.65070   0.95910   0.36070
O          O       0.74770   0.37650   0.12930
O          O       0.25230   0.87070   0.62350
O          O       0.25230   0.62350   0.87070
O          O       0.74770   0.12930   0.37650
O          O       0.62770   0.18720   0.18720
O          O       0.37230   0.81280   0.81280
O          O       0.46620   0.40570   0.13750
O          O       0.53380   0.86250   0.59430
O          O       0.53380   0.59430   0.86250
O          O       0.46620   0.13750   0.40570
O          O       0.38880   0.27110   0.53330
O          O       0.61120   0.46670   0.72890
O          O       0.61120   0.72890   0.46670
O          O       0.38880   0.53330   0.27110
O          O       0.66080   0.56660   0.18600
O          O       0.33920   0.81400   0.43340
O          O       0.33920   0.43340   0.81400
O          O       0.66080   0.18600   0.56660
O          O       0.50000   0.65420   0.34580
O          O       0.50000   0.34580   0.65420
O          O       0.58520   0.41570   0.41570
O          O       0.41480   0.58430   0.58430
Si         Si      0.10680   0.40430   0.16630
Si         Si      0.89320   0.83370   0.59570
Si         Si      0.89320   0.59570   0.83370
Si         Si      0.10680   0.16630   0.40430
Si         Si      0.62330   0.33180   0.10280
Si         Si      0.37670   0.89720   0.66820
Si         Si      0.37670   0.66820   0.89720
Si         Si      0.62330   0.10280   0.33180
Si         Si      0.34810   0.16400   0.51400
Si         Si      0.65190   0.48600   0.83600
Si         Si      0.65190   0.83600   0.48600
Si         Si      0.34810   0.51400   0.16400
Si         Si      0.53390   0.54230   0.30490
Si         Si      0.46610   0.69510   0.45770
Si         Si      0.46610   0.45770   0.69510
Si         Si      0.53390   0.30490   0.54230
Si         Si      0.79140   0.11300   0.50020
Si         Si      0.20860   0.49980   0.88700
Si         Si      0.20860   0.88700   0.49980
Si         Si      0.79140   0.50020   0.11300
