data_crystal

_cell_length_a    12.44900
_cell_length_b    13.96800
_cell_length_c    16.09249
_cell_angle_alpha 115.72112
_cell_angle_beta  103.40350
_cell_angle_gamma 90.00000

_space_group_name_Hall 'P 1'
_space_group_name_H-M_alt 'P 1'

loop_
_symmetry_equiv_pos_as_xyz
 'x,y,z'

loop_
_atom_site_label
_atom_site_type_symbol
_atom_site_fract_x
_atom_site_fract_y
_atom_site_fract_z
O          O       0.25890   0.90090   0.16120
O          O       0.74110   0.73970   0.83880
O          O       0.74110   0.09910   0.83880
O          O       0.25890   0.26030   0.16120
O          O       0.15850   0.86340   0.98480
O          O       0.84150   0.87860   0.01520
O          O       0.84150   0.13660   0.01520
O          O       0.15850   0.12140   0.98480
O          O       0.20120   0.06060   0.12120
O          O       0.79880   0.93940   0.87880
O          O       0.04860   0.92760   0.11720
O          O       0.95140   0.81040   0.88280
O          O       0.95140   0.07240   0.88280
O          O       0.04860   0.18960   0.11720
O          O       0.88880   0.91680   0.19540
O          O       0.11120   0.72140   0.80460
O          O       0.11120   0.08320   0.80460
O          O       0.88880   0.27860   0.19540
O          O       0.91100   0.07480   0.14960
O          O       0.08900   0.92520   0.85040
O          O       0.17560   0.78270   0.56540
O          O       0.82440   0.21730   0.43460
O          O       0.16450   0.79830   0.40860
O          O       0.83550   0.38970   0.59140
O          O       0.83550   0.20170   0.59140
O          O       0.16450   0.61030   0.40860
O          O       0.34880   0.74540   0.49080
O          O       0.65120   0.25460   0.50920
O          O       0.21470   0.40110   0.61180
O          O       0.78530   0.78930   0.38820
O          O       0.78530   0.59890   0.38820
O          O       0.21470   0.21070   0.61180
O          O       0.22240   0.22920   0.45840
O          O       0.77760   0.77080   0.54160
O          O       0.03920   0.25820   0.51640
O          O       0.96080   0.74180   0.48360
O          O       0.43360   0.22640   0.45280
O          O       0.56640   0.77360   0.54720
O          O       0.28390   0.25590   0.32420
O          O       0.71610   0.93170   0.67580
O          O       0.71610   0.74410   0.67580
O          O       0.28390   0.06830   0.32420
O          O       0.53300   0.39780   0.60660
O          O       0.46700   0.79120   0.39340
O          O       0.46700   0.60220   0.39340
O          O       0.53300   0.20880   0.60660
O          O       0.80810   0.94580   0.34240
O          O       0.19190   0.60340   0.65760
O          O       0.19190   0.05420   0.65760
O          O       0.80810   0.39660   0.34240
O          O       0.80980   0.99060   0.51980
O          O       0.19020   0.47080   0.48020
O          O       0.19020   0.00940   0.48020
O          O       0.80980   0.52920   0.51980
O          O       0.62490   0.90850   0.38300
O          O       0.37510   0.52550   0.61700
O          O       0.37510   0.09150   0.61700
O          O       0.62490   0.47450   0.38300
O          O       0.41630   0.91900   0.31320
O          O       0.58370   0.60580   0.68680
O          O       0.58370   0.08100   0.68680
O          O       0.41630   0.39420   0.31320
O          O       0.50000   0.00000   0.50000
O          O       0.50000   0.50000   0.50000
O          O       0.20490   0.88510   0.30420
O          O       0.79510   0.58090   0.69580
O          O       0.79510   0.11490   0.69580
O          O       0.20490   0.41910   0.30420
O          O       0.01190   0.89660   0.34380
O          O       0.98810   0.55280   0.65620
O          O       0.98810   0.10340   0.65620
O          O       0.01190   0.44720   0.34380
O          O       0.96360   0.08450   0.35760
O          O       0.03640   0.72690   0.64240
O          O       0.03640   0.91550   0.64240
O          O       0.96360   0.27310   0.35760
Si         Si      0.16700   0.93800   0.09580
Si         Si      0.83300   0.84220   0.90420
Si         Si      0.83300   0.06200   0.90420
Si         Si      0.16700   0.15780   0.09580
Si         Si      0.92230   0.95000   0.11980
Si         Si      0.07770   0.83020   0.88020
Si         Si      0.07770   0.05000   0.88020
Si         Si      0.92230   0.16980   0.11980
Si         Si      0.75780   0.90920   0.40920
Si         Si      0.24220   0.50000   0.59080
Si         Si      0.24220   0.09080   0.59080
Si         Si      0.75780   0.50000   0.40920
Si         Si      0.50180   0.90490   0.39800
Si         Si      0.49820   0.50690   0.60200
Si         Si      0.49820   0.09510   0.60200
Si         Si      0.50180   0.49310   0.39800
Si         Si      0.14310   0.89900   0.38560
Si         Si      0.85690   0.51340   0.61440
Si         Si      0.85690   0.10100   0.61440
Si         Si      0.14310   0.48660   0.38560
Si         Si      0.91730   0.95970   0.30940
Si         Si      0.08270   0.65030   0.69060
Si         Si      0.08270   0.04030   0.69060
Si         Si      0.91730   0.34970   0.30940
Si         Si      0.29240   0.94190   0.27520
Si         Si      0.70760   0.66670   0.72480
Si         Si      0.70760   0.05810   0.72480
Si         Si      0.29240   0.33330   0.27520
Si         Si      0.21530   0.73400   0.46800
Si         Si      0.78470   0.26600   0.53200
Si         Si      0.17300   0.27530   0.55060
Si         Si      0.82700   0.72470   0.44940
Si         Si      0.30640   0.19540   0.39080
Si         Si      0.69360   0.80460   0.60920
Si         Si      0.53880   0.27220   0.54440
Si         Si      0.46120   0.72780   0.45560
Si         Si      0.94640   0.20790   0.41580
Si         Si      0.05360   0.79210   0.58420
