data_crystal

_cell_length_a    11.51000
_cell_length_b    12.73300
_cell_length_c    25.11000
_cell_angle_alpha 90.00000
_cell_angle_beta  90.00000
_cell_angle_gamma 90.00000

_space_group_name_Hall 'P 1'
_space_group_name_H-M_alt 'P 1'

loop_
_symmetry_equiv_pos_as_xyz
 'x,y,z'

loop_
_atom_site_label
_atom_site_type_symbol
_atom_site_fract_x
_atom_site_fract_y
_atom_site_fract_z
Si         Si      0.63320   0.87780   0.93960
Si         Si      0.63320   0.12220   0.06040
Si         Si      0.36680   0.87780   0.06040
Si         Si      0.36680   0.12220   0.93960
Si         Si      0.36680   0.12220   0.06040
Si         Si      0.36680   0.87780   0.93960
Si         Si      0.63320   0.12220   0.93960
Si         Si      0.63320   0.87780   0.06040
Si         Si      0.63230   0.62150   0.65620
Si         Si      0.63230   0.37850   0.34380
Si         Si      0.36770   0.62150   0.34380
Si         Si      0.36770   0.37850   0.65620
Si         Si      0.36770   0.37850   0.34380
Si         Si      0.36770   0.62150   0.65620
Si         Si      0.63230   0.37850   0.65620
Si         Si      0.63230   0.62150   0.34380
Si         Si      0.63270   0.62010   0.77870
Si         Si      0.63270   0.37990   0.22130
Si         Si      0.36730   0.62010   0.22130
Si         Si      0.36730   0.37990   0.77870
Si         Si      0.36730   0.37990   0.22130
Si         Si      0.36730   0.62010   0.77870
Si         Si      0.63270   0.37990   0.77870
Si         Si      0.63270   0.62010   0.22130
Si         Si      0.77620   0.80780   0.61340
Si         Si      0.77620   0.19220   0.38660
Si         Si      0.22380   0.80780   0.38660
Si         Si      0.22380   0.19220   0.61340
Si         Si      0.22380   0.19220   0.38660
Si         Si      0.22380   0.80780   0.61340
Si         Si      0.77620   0.19220   0.61340
Si         Si      0.77620   0.80780   0.38660
Si         Si      0.74930   0.80640   0.83820
Si         Si      0.74930   0.19360   0.16180
Si         Si      0.25070   0.80640   0.16180
Si         Si      0.25070   0.19360   0.83820
Si         Si      0.25070   0.19360   0.16180
Si         Si      0.25070   0.80640   0.83820
Si         Si      0.74930   0.19360   0.83820
Si         Si      0.74930   0.80640   0.16180
Si         Si      1.00000   0.87750   0.80410
Si         Si      0.00000   0.12250   0.19590
Si         Si      1.00000   0.87750   0.19590
Si         Si      0.00000   0.12250   0.80410
Si         Si      1.00000   0.87750   0.67660
Si         Si      1.00000   0.12250   0.32340
Si         Si      1.00000   0.87750   0.32340
Si         Si      0.00000   0.12250   0.67660
Si         Si      0.63920   0.00000   0.65750
Si         Si      0.63920   0.00000   0.34250
Si         Si      0.36080   0.00000   0.34250
Si         Si      0.36080   0.00000   0.65750
Si         Si      0.63910   0.00000   0.77530
Si         Si      0.63910   0.00000   0.22470
Si         Si      0.36090   0.00000   0.22470
Si         Si      0.36090   0.00000   0.77530
Si         Si      0.86040   0.88100   0.50000
Si         Si      0.86040   0.11900   0.50000
Si         Si      0.13960   0.88100   0.50000
Si         Si      0.13960   0.11900   0.50000
O          O       0.64850   0.83780   0.00000
O          O       0.64850   0.16220   0.00000
O          O       0.35150   0.83780   0.00000
O          O       0.35150   0.16220   0.00000
O          O       0.50000   0.86300   0.92140
O          O       0.50000   0.13700   0.07860
O          O       0.50000   0.86300   0.07860
O          O       0.50000   0.13700   0.92140
O          O       0.71740   0.81210   0.90060
O          O       0.71740   0.18790   0.09940
O          O       0.28260   0.81210   0.09940
O          O       0.28260   0.18790   0.90060
O          O       0.28260   0.18790   0.09940
O          O       0.28260   0.81210   0.90060
O          O       0.71740   0.18790   0.90060
O          O       0.71740   0.81210   0.09940
O          O       0.66820   0.00000   0.93620
O          O       0.66820   0.00000   0.06380
O          O       0.33180   0.00000   0.06380
O          O       0.33180   0.00000   0.93620
O          O       0.71830   0.69370   0.62130
O          O       0.71830   0.30630   0.37870
O          O       0.28170   0.69370   0.37870
O          O       0.28170   0.30630   0.62130
O          O       0.28170   0.30630   0.37870
O          O       0.28170   0.69370   0.62130
O          O       0.71830   0.30630   0.62130
O          O       0.71830   0.69370   0.37870
O          O       0.64180   0.65730   0.71750
O          O       0.64180   0.34270   0.28250
O          O       0.35820   0.65730   0.28250
O          O       0.35820   0.34270   0.71750
O          O       0.35820   0.34270   0.28250
O          O       0.35820   0.65730   0.71750
O          O       0.64180   0.34270   0.71750
O          O       0.64180   0.65730   0.28250
O          O       0.66930   0.50000   0.65070
O          O       0.66930   0.50000   0.34930
O          O       0.33070   0.50000   0.34930
O          O       0.33070   0.50000   0.65070
O          O       0.50000   0.63600   0.63650
O          O       0.50000   0.36400   0.36350
O          O       0.50000   0.63600   0.36350
O          O       0.50000   0.36400   0.63650
O          O       0.71400   0.69260   0.81550
O          O       0.71400   0.30740   0.18450
O          O       0.28600   0.69260   0.18450
O          O       0.28600   0.30740   0.81550
O          O       0.28600   0.30740   0.18450
O          O       0.28600   0.69260   0.81550
O          O       0.71400   0.30740   0.81550
O          O       0.71400   0.69260   0.18450
O          O       0.50000   0.62910   0.79840
O          O       0.50000   0.37090   0.20160
O          O       0.50000   0.62910   0.20160
O          O       0.50000   0.37090   0.79840
O          O       0.67520   0.50000   0.78340
O          O       0.67520   0.50000   0.21660
O          O       0.32480   0.50000   0.21660
O          O       0.32480   0.50000   0.78340
O          O       0.68050   0.89660   0.62590
O          O       0.68050   0.10340   0.37410
O          O       0.31950   0.89660   0.37410
O          O       0.31950   0.10340   0.62590
O          O       0.31950   0.10340   0.37410
O          O       0.31950   0.89660   0.62590
O          O       0.68050   0.10340   0.62590
O          O       0.68050   0.89660   0.37410
O          O       0.88590   0.82190   0.65240
O          O       0.88590   0.17810   0.34760
O          O       0.11410   0.82190   0.34760
O          O       0.11410   0.17810   0.65240
O          O       0.11410   0.17810   0.34760
O          O       0.11410   0.82190   0.65240
O          O       0.88590   0.17810   0.65240
O          O       0.88590   0.82190   0.34760
O          O       0.81670   0.81970   0.55230
O          O       0.81670   0.18030   0.44770
O          O       0.18330   0.81970   0.44770
O          O       0.18330   0.18030   0.55230
O          O       0.18330   0.18030   0.44770
O          O       0.18330   0.81970   0.55230
O          O       0.81670   0.18030   0.55230
O          O       0.81670   0.81970   0.44770
O          O       0.88650   0.82330   0.82950
O          O       0.88650   0.17670   0.17050
O          O       0.11350   0.82330   0.17050
O          O       0.11350   0.17670   0.82950
O          O       0.11350   0.17670   0.17050
O          O       0.11350   0.82330   0.82950
O          O       0.88650   0.17670   0.82950
O          O       0.88650   0.82330   0.17050
O          O       0.67880   0.89640   0.80700
O          O       0.67880   0.10360   0.19300
O          O       0.32120   0.89640   0.19300
O          O       0.32120   0.10360   0.80700
O          O       0.32120   0.10360   0.19300
O          O       0.32120   0.89640   0.80700
O          O       0.67880   0.10360   0.80700
O          O       0.67880   0.89640   0.19300
O          O       1.00000   0.00000   0.81980
O          O       0.00000   0.00000   0.18020
O          O       1.00000   0.86470   0.74040
O          O       0.00000   0.13530   0.25960
O          O       0.00000   0.86470   0.25960
O          O       0.00000   0.13530   0.74040
O          O       1.00000   0.00000   0.66090
O          O       1.00000   0.00000   0.33910
O          O       0.50000   0.00000   0.66260
O          O       0.50000   0.00000   0.33740
O          O       0.69470   0.00000   0.71640
O          O       0.69470   0.00000   0.28360
O          O       0.30530   0.00000   0.28360
O          O       0.30530   0.00000   0.71640
O          O       0.50000   0.00000   0.76960
O          O       0.50000   0.00000   0.23040
O          O       1.00000   0.88320   0.50000
O          O       1.00000   0.11680   0.50000
O          O       0.81280   0.00000   0.50000
O          O       0.18720   0.00000   0.50000
