data_crystal

_cell_length_a    4.94800
_cell_length_b    13.04800
_cell_length_c    13.04800
_cell_angle_alpha 90.00000
_cell_angle_beta  90.00000
_cell_angle_gamma 90.00000

_space_group_name_Hall 'P 1'
_space_group_name_H-M_alt 'P 1'

loop_
_symmetry_equiv_pos_as_xyz
 'x,y,z'

loop_
_atom_site_label
_atom_site_type_symbol
_atom_site_fract_x
_atom_site_fract_y
_atom_site_fract_z
Si         Si      0.73680   0.21520   0.05030
Si         Si      0.26320   0.94970   0.21520
Si         Si      0.73680   0.78480   0.94970
Si         Si      0.26320   0.05030   0.78480
Si         Si      0.76030   0.83410   0.28700
Si         Si      0.23970   0.71300   0.83410
Si         Si      0.76030   0.16590   0.71300
Si         Si      0.23970   0.28700   0.16590
Si         Si      0.75570   0.65320   0.14660
Si         Si      0.24430   0.85340   0.65320
Si         Si      0.75570   0.34680   0.85340
Si         Si      0.24430   0.14660   0.34680
Si         Si      0.28260   0.51860   0.11470
Si         Si      0.71740   0.88530   0.51860
Si         Si      0.28260   0.48140   0.88530
Si         Si      0.71740   0.11470   0.48140
Si         Si      0.50000   0.00000   0.00000
O          O       0.68890   0.09410   0.03550
O          O       0.31110   0.96450   0.09410
O          O       0.68890   0.90590   0.96450
O          O       0.31110   0.03550   0.90590
O          O       0.54850   0.25600   0.14240
O          O       0.45150   0.85760   0.25600
O          O       0.54850   0.74400   0.85760
O          O       0.45150   0.14240   0.74400
O          O       0.04730   0.23840   0.07910
O          O       0.95270   0.92090   0.23840
O          O       0.04730   0.76160   0.92090
O          O       0.95270   0.07910   0.76160
O          O       0.65820   0.27420   0.94610
O          O       0.34180   0.05390   0.27420
O          O       0.65820   0.72580   0.05390
O          O       0.34180   0.94610   0.72580
O          O       0.84300   0.72330   0.24260
O          O       0.15700   0.75740   0.72330
O          O       0.84300   0.27670   0.75740
O          O       0.15700   0.24260   0.27670
O          O       0.78590   0.83300   0.41000
O          O       0.21410   0.59000   0.83300
O          O       0.78590   0.16700   0.59000
O          O       0.21410   0.41000   0.16700
O          O       0.51190   0.57810   0.17920
O          O       0.48810   0.82080   0.57810
O          O       0.51190   0.42190   0.82080
O          O       0.48810   0.17920   0.42190
O          O       0.01170   0.58670   0.10980
O          O       0.98830   0.89020   0.58670
O          O       0.01170   0.41330   0.89020
O          O       0.98830   0.10980   0.41330
O          O       0.39220   0.50000   0.00000
O          O       0.60780   0.00000   0.50000
