data_crystal

_cell_length_a    8.58900
_cell_length_b    18.28400
_cell_length_c    18.28400
_cell_angle_alpha 120.00000
_cell_angle_beta  90.00000
_cell_angle_gamma 90.00000

_space_group_name_Hall 'P 1'
_space_group_name_H-M_alt 'P 1'

loop_
_symmetry_equiv_pos_as_xyz
 'x,y,z'

loop_
_atom_site_label
_atom_site_type_symbol
_atom_site_fract_x
_atom_site_fract_y
_atom_site_fract_z
Si         Si      0.06280   0.83230   0.49897
Si         Si      0.06280   0.66667   0.16770
Si         Si      0.06280   0.50103   0.33333
Si         Si      0.56280   0.16770   0.50103
Si         Si      0.56280   0.33333   0.83230
Si         Si      0.56280   0.49897   0.66667
Si         Si      0.56280   0.66667   0.49897
Si         Si      0.56280   0.50103   0.16770
Si         Si      0.56280   0.83230   0.33333
Si         Si      0.06280   0.33333   0.50103
Si         Si      0.06280   0.49897   0.83230
Si         Si      0.06280   0.16770   0.66667
Si         Si      0.93720   0.16770   0.50103
Si         Si      0.93720   0.33333   0.83230
Si         Si      0.93720   0.49897   0.66667
Si         Si      0.43720   0.83230   0.49897
Si         Si      0.43720   0.66667   0.16770
Si         Si      0.43720   0.50103   0.33333
Si         Si      0.43720   0.33333   0.50103
Si         Si      0.43720   0.49897   0.83230
Si         Si      0.43720   0.16770   0.66667
Si         Si      0.93720   0.66667   0.49897
Si         Si      0.93720   0.50103   0.16770
Si         Si      0.93720   0.83230   0.33333
Si         Si      0.93710   0.41720   0.41720
Si         Si      0.93710   0.00000   0.58280
Si         Si      0.93710   0.58280   0.00000
Si         Si      0.43710   0.58280   0.58280
Si         Si      0.43710   1.00000   0.41720
Si         Si      0.43710   0.41720   0.00000
Si         Si      0.06290   0.58280   0.58280
Si         Si      0.06290   1.00000   0.41720
Si         Si      0.06290   0.41720   0.00000
Si         Si      0.56290   0.41720   0.41720
Si         Si      0.56290   0.00000   0.58280
Si         Si      0.56290   0.58280   0.00000
O          O       0.00000   0.83070   0.41540
O          O       0.00000   0.58470   0.16930
O          O       0.00000   0.58460   0.41530
O          O       0.50000   0.16930   0.58460
O          O       0.50000   0.41530   0.83070
O          O       0.50000   0.41540   0.58470
O          O       0.50000   0.58470   0.41540
O          O       0.50000   0.58460   0.16930
O          O       0.50000   0.83070   0.41530
O          O       0.00000   0.41530   0.58460
O          O       0.00000   0.41540   0.83070
O          O       0.00000   0.16930   0.58470
O          O       0.00000   0.75070   0.50140
O          O       0.00000   0.75070   0.24930
O          O       0.00000   0.49860   0.24930
O          O       0.50000   0.24930   0.49860
O          O       0.50000   0.24930   0.75070
O          O       0.50000   0.50140   0.75070
O          O       0.50000   0.75070   0.50140
O          O       0.50000   0.49860   0.24930
O          O       0.50000   0.75070   0.24930
O          O       0.00000   0.24930   0.49860
O          O       0.00000   0.50140   0.75070
O          O       0.00000   0.24930   0.75070
O          O       0.00160   0.91660   0.58140
O          O       0.00160   0.66480   0.08340
O          O       0.00160   0.41860   0.33520
O          O       0.50160   0.08340   0.41860
O          O       0.50160   0.33520   0.91660
O          O       0.50160   0.58140   0.66480
O          O       0.50160   0.66480   0.58140
O          O       0.50160   0.41860   0.08340
O          O       0.50160   0.91660   0.33520
O          O       0.00160   0.33520   0.41860
O          O       0.00160   0.58140   0.91660
O          O       0.00160   0.08340   0.66480
O          O       0.99840   0.08340   0.41860
O          O       0.99840   0.33520   0.91660
O          O       0.99840   0.58140   0.66480
O          O       0.49840   0.91660   0.58140
O          O       0.49840   0.66480   0.08340
O          O       0.49840   0.41860   0.33520
O          O       0.49840   0.33520   0.41860
O          O       0.49840   0.58140   0.91660
O          O       0.49840   0.08340   0.66480
O          O       0.99840   0.66480   0.58140
O          O       0.99840   0.41860   0.08340
O          O       0.99840   0.91660   0.33520
O          O       0.25000   0.83190   0.49857
O          O       0.25000   0.66667   0.16810
O          O       0.25000   0.50143   0.33333
O          O       0.75000   0.16810   0.50143
O          O       0.75000   0.33333   0.83190
O          O       0.75000   0.49857   0.66667
O          O       0.75000   0.66667   0.49857
O          O       0.75000   0.50143   0.16810
O          O       0.75000   0.83190   0.33333
O          O       0.25000   0.33333   0.50143
O          O       0.25000   0.49857   0.83190
O          O       0.25000   0.16810   0.66667
O          O       0.00000   0.50000   0.50000
O          O       1.00000   1.00000   0.50000
O          O       0.00000   0.50000   0.00000
O          O       0.50000   0.50000   0.50000
O          O       0.50000   1.00000   0.50000
O          O       0.50000   0.50000   0.00000
O          O       0.75000   0.41670   0.41670
O          O       0.75000   1.00000   0.58330
O          O       0.75000   0.58330   0.00000
O          O       0.25000   0.58330   0.58330
O          O       0.25000   1.00000   0.41670
O          O       0.25000   0.41670   0.00000
