data_crystal

_cell_length_a    10.00200
_cell_length_b    10.00200
_cell_length_c    34.14100
_cell_angle_alpha 90.00000
_cell_angle_beta  90.00000
_cell_angle_gamma 90.00000

_space_group_name_Hall 'P 1'
_space_group_name_H-M_alt 'P 1'

loop_
_symmetry_equiv_pos_as_xyz
 'x,y,z'

loop_
_atom_site_label
_atom_site_type_symbol
_atom_site_fract_x
_atom_site_fract_y
_atom_site_fract_z
Si         Si      0.09850   0.70290   0.90320
Si         Si      0.79710   0.09850   0.40320
Si         Si      0.40150   0.79710   0.90320
Si         Si      0.70290   0.40150   0.40320
Si         Si      0.40150   0.70290   0.40320
Si         Si      0.70290   0.09850   0.90320
Si         Si      0.09850   0.79710   0.40320
Si         Si      0.79710   0.40150   0.90320
Si         Si      0.90150   0.29710   0.09680
Si         Si      0.20290   0.90150   0.59680
Si         Si      0.59850   0.20290   0.09680
Si         Si      0.29710   0.59850   0.59680
Si         Si      0.59850   0.29710   0.59680
Si         Si      0.29710   0.90150   0.09680
Si         Si      0.90150   0.20290   0.59680
Si         Si      0.20290   0.59850   0.09680
Si         Si      0.04550   0.04550   0.45690
Si         Si      0.45450   0.04550   0.95690
Si         Si      0.45450   0.45450   0.45690
Si         Si      0.04550   0.45450   0.95690
Si         Si      0.95450   0.95450   0.54310
Si         Si      0.54550   0.95450   0.04310
Si         Si      0.54550   0.54550   0.54310
Si         Si      0.95450   0.54550   0.04310
Si         Si      0.09460   0.09460   0.27230
Si         Si      0.40540   0.09460   0.77230
Si         Si      0.40540   0.40540   0.27230
Si         Si      0.09460   0.40540   0.77230
Si         Si      0.90540   0.90540   0.72770
Si         Si      0.59460   0.90540   0.22770
Si         Si      0.59460   0.59460   0.72770
Si         Si      0.90540   0.59460   0.22770
Si         Si      0.10840   0.10840   0.74580
Si         Si      0.39160   0.10840   0.24580
Si         Si      0.39160   0.39160   0.74580
Si         Si      0.10840   0.39160   0.24580
Si         Si      0.89160   0.89160   0.25420
Si         Si      0.60840   0.89160   0.75420
Si         Si      0.60840   0.60840   0.25420
Si         Si      0.89160   0.60840   0.75420
Si         Si      0.95540   0.95540   0.33610
Si         Si      0.54460   0.95540   0.83610
Si         Si      0.54460   0.54460   0.33610
Si         Si      0.95540   0.54460   0.83610
Si         Si      0.04460   0.04460   0.66390
Si         Si      0.45540   0.04460   0.16390
Si         Si      0.45540   0.45540   0.66390
Si         Si      0.04460   0.45540   0.16390
Si         Si      0.14540   0.14540   0.06500
Si         Si      0.35460   0.14540   0.56500
Si         Si      0.35460   0.35460   0.06500
Si         Si      0.14540   0.35460   0.56500
Si         Si      0.85460   0.85460   0.93500
Si         Si      0.64540   0.85460   0.43500
Si         Si      0.64540   0.64540   0.93500
Si         Si      0.85460   0.64540   0.43500
Si         Si      0.25000   0.25000   0.49040
Si         Si      0.25000   0.25000   0.99040
Si         Si      0.75000   0.75000   0.50960
Si         Si      0.75000   0.75000   0.00960
O          O       0.00450   0.81830   0.92120
O          O       0.68170   0.00450   0.42120
O          O       0.49550   0.68170   0.92120
O          O       0.81830   0.49550   0.42120
O          O       0.49550   0.81830   0.42120
O          O       0.81830   0.00450   0.92120
O          O       0.00450   0.68170   0.42120
O          O       0.68170   0.49550   0.92120
O          O       0.99550   0.18170   0.07880
O          O       0.31830   0.99550   0.57880
O          O       0.50450   0.31830   0.07880
O          O       0.18170   0.50450   0.57880
O          O       0.50450   0.18170   0.57880
O          O       0.18170   0.99550   0.07880
O          O       0.99550   0.31830   0.57880
O          O       0.31830   0.50450   0.07880
O          O       0.03450   0.65150   0.86260
O          O       0.84850   0.03450   0.36260
O          O       0.46550   0.84850   0.86260
O          O       0.65150   0.46550   0.36260
O          O       0.46550   0.65150   0.36260
O          O       0.65150   0.03450   0.86260
O          O       0.03450   0.84850   0.36260
O          O       0.84850   0.46550   0.86260
O          O       0.96550   0.34850   0.13740
O          O       0.15150   0.96550   0.63740
O          O       0.53450   0.15150   0.13740
O          O       0.34850   0.53450   0.63740
O          O       0.53450   0.34850   0.63740
O          O       0.34850   0.96550   0.13740
O          O       0.96550   0.15150   0.63740
O          O       0.15150   0.53450   0.13740
O          O       0.10560   0.58020   0.93360
O          O       0.91980   0.10560   0.43360
O          O       0.39440   0.91980   0.93360
O          O       0.58020   0.39440   0.43360
O          O       0.39440   0.58020   0.43360
O          O       0.58020   0.10560   0.93360
O          O       0.10560   0.91980   0.43360
O          O       0.91980   0.39440   0.93360
O          O       0.89440   0.41980   0.06640
O          O       0.08020   0.89440   0.56640
O          O       0.60560   0.08020   0.06640
O          O       0.41980   0.60560   0.56640
O          O       0.60560   0.41980   0.56640
O          O       0.41980   0.89440   0.06640
O          O       0.89440   0.08020   0.56640
O          O       0.08020   0.60560   0.06640
O          O       0.25000   0.75000   0.89540
O          O       0.75000   0.25000   0.39540
O          O       0.25000   0.75000   0.39540
O          O       0.75000   0.25000   0.89540
O          O       0.75000   0.25000   0.10460
O          O       0.25000   0.75000   0.60460
O          O       0.75000   0.25000   0.60460
O          O       0.25000   0.75000   0.10460
O          O       0.15850   0.15850   0.46230
O          O       0.34150   0.15850   0.96230
O          O       0.34150   0.34150   0.46230
O          O       0.15850   0.34150   0.96230
O          O       0.84150   0.84150   0.53770
O          O       0.65850   0.84150   0.03770
O          O       0.65850   0.65850   0.53770
O          O       0.84150   0.65850   0.03770
O          O       0.00000   0.00000   0.50000
O          O       0.50000   0.00000   0.00000
O          O       0.50000   0.50000   0.50000
O          O       0.00000   0.50000   0.00000
O          O       0.00300   0.00300   0.24420
O          O       0.49700   0.00300   0.74420
O          O       0.49700   0.49700   0.24420
O          O       0.00300   0.49700   0.74420
O          O       0.99700   0.99700   0.75580
O          O       0.50300   0.99700   0.25580
O          O       0.50300   0.50300   0.75580
O          O       0.99700   0.50300   0.25580
O          O       0.06400   0.25000   0.26400
O          O       0.25000   0.06400   0.76400
O          O       0.43600   0.25000   0.26400
O          O       0.25000   0.43600   0.76400
O          O       0.43600   0.25000   0.76400
O          O       0.25000   0.06400   0.26400
O          O       0.06400   0.25000   0.76400
O          O       0.25000   0.43600   0.26400
O          O       0.93600   0.75000   0.73600
O          O       0.75000   0.93600   0.23600
O          O       0.56400   0.75000   0.73600
O          O       0.75000   0.56400   0.23600
O          O       0.56400   0.75000   0.23600
O          O       0.75000   0.93600   0.73600
O          O       0.93600   0.75000   0.23600
O          O       0.75000   0.56400   0.73600
O          O       0.05980   0.05980   0.31720
O          O       0.44020   0.05980   0.81720
O          O       0.44020   0.44020   0.31720
O          O       0.05980   0.44020   0.81720
O          O       0.94020   0.94020   0.68280
O          O       0.55980   0.94020   0.18280
O          O       0.55980   0.55980   0.68280
O          O       0.94020   0.55980   0.18280
O          O       0.12120   0.12120   0.69890
O          O       0.37880   0.12120   0.19890
O          O       0.37880   0.37880   0.69890
O          O       0.12120   0.37880   0.19890
O          O       0.87880   0.87880   0.30110
O          O       0.62120   0.87880   0.80110
O          O       0.62120   0.62120   0.30110
O          O       0.87880   0.62120   0.80110
O          O       0.15740   0.15740   0.01800
O          O       0.34260   0.15740   0.51800
O          O       0.34260   0.34260   0.01800
O          O       0.15740   0.34260   0.51800
O          O       0.84260   0.84260   0.98200
O          O       0.65740   0.84260   0.48200
O          O       0.65740   0.65740   0.98200
O          O       0.84260   0.65740   0.48200
O          O       0.25000   0.25000   0.08390
O          O       0.25000   0.25000   0.58390
O          O       0.75000   0.75000   0.91610
O          O       0.75000   0.75000   0.41610
