data_crystal

_cell_length_a    7.15600
_cell_length_b    7.15600
_cell_length_c    21.52423
_cell_angle_alpha 99.56877
_cell_angle_beta  99.56877
_cell_angle_gamma 90.00000

_space_group_name_Hall 'P 1'
_space_group_name_H-M_alt 'P 1'

loop_
_symmetry_equiv_pos_as_xyz
 'x,y,z'

loop_
_atom_site_label
_atom_site_type_symbol
_atom_site_fract_x
_atom_site_fract_y
_atom_site_fract_z
O          O       0.54410   0.22770   0.45540
O          O       0.91130   0.22770   0.45540
O          O       0.47770   0.29410   0.95540
O          O       0.47770   0.66130   0.95540
O          O       0.70590   0.52230   0.04460
O          O       0.33870   0.52230   0.04460
O          O       0.77230   0.08870   0.54460
O          O       0.77230   0.45590   0.54460
O          O       0.36160   0.99400   0.35640
O          O       0.99480   0.36240   0.35640
O          O       0.61240   0.11160   0.85640
O          O       0.24400   0.74480   0.85640
O          O       0.88840   0.38760   0.14360
O          O       0.25520   0.75600   0.14360
O          O       0.63760   0.00520   0.64360
O          O       0.00600   0.63840   0.64360
O          O       0.88840   0.75600   0.14360
O          O       0.25520   0.38760   0.14360
O          O       0.63760   0.63840   0.64360
O          O       0.00600   0.00520   0.64360
O          O       0.36160   0.36240   0.35640
O          O       0.99480   0.99400   0.35640
O          O       0.61240   0.74480   0.85640
O          O       0.24400   0.11160   0.85640
O          O       0.67360   0.17360   0.34720
O          O       0.42360   0.42360   0.84720
O          O       0.57640   0.57640   0.15280
O          O       0.82640   0.32640   0.65280
O          O       0.07880   0.07880   0.15760
O          O       0.32880   0.82880   0.65760
O          O       0.17120   0.67120   0.34240
O          O       0.92120   0.92120   0.84240
O          O       0.12500   0.37500   0.25000
O          O       0.12500   0.87500   0.25000
O          O       0.12500   0.87500   0.75000
O          O       0.62500   0.87500   0.75000
Si         Si      0.48360   0.18940   0.37880
Si         Si      0.89520   0.18940   0.37880
Si         Si      0.43940   0.23360   0.87880
Si         Si      0.43940   0.64520   0.87880
Si         Si      0.76640   0.56060   0.12120
Si         Si      0.35480   0.56060   0.12120
Si         Si      0.81060   0.10480   0.62120
Si         Si      0.81060   0.51640   0.62120
Si         Si      0.08690   0.30670   0.17380
Si         Si      0.08690   0.86710   0.17380
Si         Si      0.11710   0.83690   0.67380
Si         Si      0.55670   0.83690   0.67380
Si         Si      0.16310   0.88290   0.32620
Si         Si      0.16310   0.44330   0.32620
Si         Si      0.13290   0.91310   0.82620
Si         Si      0.69330   0.91310   0.82620
Si         Si      0.75000   0.25000   0.50000
Si         Si      0.50000   0.50000   0.00000
