data_crystal

_cell_length_a    7.82541
_cell_length_b    7.82541
_cell_length_c    9.98900
_cell_angle_alpha 90.00000
_cell_angle_beta  90.00000
_cell_angle_gamma 97.90159

_space_group_name_Hall 'P 1'
_space_group_name_H-M_alt 'P 1'

loop_
_symmetry_equiv_pos_as_xyz
 'x,y,z'

loop_
_atom_site_label
_atom_site_type_symbol
_atom_site_fract_x
_atom_site_fract_y
_atom_site_fract_z
O          O       0.51150   0.66950   0.15710
O          O       0.66950   0.51150   0.65710
O          O       0.33050   0.48850   0.65710
O          O       0.48850   0.33050   0.15710
O          O       0.48850   0.33050   0.84290
O          O       0.33050   0.48850   0.34290
O          O       0.66950   0.51150   0.34290
O          O       0.51150   0.66950   0.84290
O          O       0.32380   0.83880   1.00000
O          O       0.83880   0.32380   0.50000
O          O       0.16120   0.67620   0.50000
O          O       0.67620   0.16120   0.00000
O          O       0.22930   0.77070   0.25000
O          O       0.77070   0.22930   0.75000
O          O       0.22930   0.77070   0.75000
O          O       0.77070   0.22930   0.25000
O          O       0.50000   0.00000   0.19820
O          O       1.00000   0.50000   0.69820
O          O       0.50000   0.00000   0.80180
O          O       1.00000   0.50000   0.30180
Si         Si      0.39110   0.82070   0.15090
Si         Si      0.82070   0.39110   0.65090
Si         Si      0.17930   0.60890   0.65090
Si         Si      0.60890   0.17930   0.15090
Si         Si      0.60890   0.17930   0.84910
Si         Si      0.17930   0.60890   0.34910
Si         Si      0.82070   0.39110   0.34910
Si         Si      0.39110   0.82070   0.84910
Si         Si      0.50000   0.50000   0.25000
Si         Si      0.50000   0.50000   0.75000
