data_crystal

_cell_length_a    6.91800
_cell_length_b    14.87000
_cell_length_c    17.23600
_cell_angle_alpha 90.00000
_cell_angle_beta  90.00000
_cell_angle_gamma 90.00000

_space_group_name_Hall 'P 1'
_space_group_name_H-M_alt 'P 1'

loop_
_symmetry_equiv_pos_as_xyz
 'x,y,z'

loop_
_atom_site_label
_atom_site_type_symbol
_atom_site_fract_x
_atom_site_fract_y
_atom_site_fract_z
Si         Si      0.11460   0.72620   0.34160
Si         Si      0.88540   0.22620   0.34160
Si         Si      0.11460   0.77380   0.84160
Si         Si      0.88540   0.27380   0.84160
Si         Si      0.88540   0.27380   0.65840
Si         Si      0.11460   0.77380   0.65840
Si         Si      0.88540   0.22620   0.15840
Si         Si      0.11460   0.72620   0.15840
Si         Si      0.10690   0.90400   0.42970
Si         Si      0.89310   0.40400   0.42970
Si         Si      0.10690   0.59600   0.92970
Si         Si      0.89310   0.09600   0.92970
Si         Si      0.89310   0.09600   0.57030
Si         Si      0.10690   0.59600   0.57030
Si         Si      0.89310   0.40400   0.07030
Si         Si      0.10690   0.90400   0.07030
Si         Si      0.84430   0.60050   0.42680
Si         Si      0.15570   0.10050   0.42680
Si         Si      0.84430   0.89950   0.92680
Si         Si      0.15570   0.39950   0.92680
Si         Si      0.15570   0.39950   0.57320
Si         Si      0.84430   0.89950   0.57320
Si         Si      0.15570   0.10050   0.07320
Si         Si      0.84430   0.60050   0.07320
Si         Si      0.42970   0.84150   0.53950
Si         Si      0.57030   0.34150   0.53950
Si         Si      0.42970   0.65850   0.03950
Si         Si      0.57030   0.15850   0.03950
Si         Si      0.57030   0.15850   0.46050
Si         Si      0.42970   0.65850   0.46050
Si         Si      0.57030   0.34150   0.96050
Si         Si      0.42970   0.84150   0.96050
O          O       0.91690   0.67890   0.36940
O          O       0.08310   0.17890   0.36940
O          O       0.91690   0.82110   0.86940
O          O       0.08310   0.32110   0.86940
O          O       0.08310   0.32110   0.63060
O          O       0.91690   0.82110   0.63060
O          O       0.08310   0.17890   0.13060
O          O       0.91690   0.67890   0.13060
O          O       0.29370   0.68220   0.38760
O          O       0.70630   0.18220   0.38760
O          O       0.29370   0.81780   0.88760
O          O       0.70630   0.31780   0.88760
O          O       0.70630   0.31780   0.61240
O          O       0.29370   0.81780   0.61240
O          O       0.70630   0.18220   0.11240
O          O       0.29370   0.68220   0.11240
O          O       0.10630   0.83240   0.35970
O          O       0.89370   0.33240   0.35970
O          O       0.10630   0.66760   0.85970
O          O       0.89370   0.16760   0.85970
O          O       0.89370   0.16760   0.64030
O          O       0.10630   0.66760   0.64030
O          O       0.89370   0.33240   0.14030
O          O       0.10630   0.83240   0.14030
O          O       0.14340   0.71050   0.25000
O          O       0.85660   0.21050   0.25000
O          O       0.14340   0.78950   0.75000
O          O       0.85660   0.28950   0.75000
O          O       0.08210   0.00430   0.39570
O          O       0.91790   0.50430   0.39570
O          O       0.08210   0.49570   0.89570
O          O       0.91790   0.99570   0.89570
O          O       0.91790   0.99570   0.60430
O          O       0.08210   0.49570   0.60430
O          O       0.91790   0.50430   0.10430
O          O       0.08210   0.00430   0.10430
O          O       0.30800   0.89800   0.47650
O          O       0.69200   0.39800   0.47650
O          O       0.30800   0.60200   0.97650
O          O       0.69200   0.10200   0.97650
O          O       0.69200   0.10200   0.52350
O          O       0.30800   0.60200   0.52350
O          O       0.69200   0.39800   0.02350
O          O       0.30800   0.89800   0.02350
O          O       0.93070   0.88210   0.48770
O          O       0.06930   0.38210   0.48770
O          O       0.93070   0.61790   0.98770
O          O       0.06930   0.11790   0.98770
O          O       0.06930   0.11790   0.51230
O          O       0.93070   0.61790   0.51230
O          O       0.06930   0.38210   0.01230
O          O       0.93070   0.88210   0.01230
O          O       0.61180   0.60040   0.43110
O          O       0.38820   0.10040   0.43110
O          O       0.61180   0.89960   0.93110
O          O       0.38820   0.39960   0.93110
O          O       0.38820   0.39960   0.56890
O          O       0.61180   0.89960   0.56890
O          O       0.38820   0.10040   0.06890
O          O       0.61180   0.60040   0.06890
O          O       0.50590   0.75000   0.50000
O          O       0.49410   0.25000   0.50000
O          O       0.50590   0.75000   0.00000
O          O       0.49410   0.25000   0.00000
